####################################################################### 
# 
# This file contains crystal structure data downloaded from the 
# Cambridge Structural Database (CSD) hosted by the Cambridge 
# Crystallographic Data Centre (CCDC).
# 
# Full information about CCDC data access policies and citation 
# guidelines are available at http://www.ccdc.cam.ac.uk/access/V1 
# 
# Audit and citation data items may have been added by the CCDC. 
# Please retain this information to preserve the provenance of 
# this file and to allow appropriate attribution of the data. 
# 
#######################################################################

data_PAP-H5
_audit_block_doi                 10.5517/ccdc.csd.cc24lzh7
_database_code_depnum_ccdc_archive 'CCDC 1984449'
loop_
_citation_id
_citation_doi
_citation_year
1 10.1021/acs.inorgchem.1c03958 2022
loop_
_audit_author_name
_audit_author_address
'Yu Shang'
;Sun Yat Sen University
China
;
_audit_update_record             
;
2020-02-15 deposited with the CCDC.	2024-05-12 downloaded from the CCDC.
;
_audit_creation_date             2019-10-31
_audit_creation_method           
;
Olex2 1.2
(compiled 2018.05.29 svn.r3508 for OlexSys, GUI svn.r5506)
;
_shelx_SHELXL_version_number     2014/7
_chemical_name_common            ?
_chemical_name_systematic        ?
_chemical_formula_moiety         'Ag Cl O4, 2(Cl O4), C5 H14 N2'
_chemical_formula_sum            'C5 H14 Ag Cl3 N2 O12'
_chemical_formula_weight         508.40
_chemical_melting_point          ?
loop_
_atom_type_symbol
_atom_type_description
_atom_type_scat_dispersion_real
_atom_type_scat_dispersion_imag
_atom_type_scat_source
C C 0.0181 0.0091 'International Tables Vol C Tables 4.2.6.8 and 6.1.1.4'
H H 0.0000 0.0000 'International Tables Vol C Tables 4.2.6.8 and 6.1.1.4'
Ag Ag 0.1306 4.2820 'International Tables Vol C Tables 4.2.6.8 and 6.1.1.4'
Cl Cl 0.3639 0.7018 'International Tables Vol C Tables 4.2.6.8 and 6.1.1.4'
N N 0.0311 0.0180 'International Tables Vol C Tables 4.2.6.8 and 6.1.1.4'
O O 0.0492 0.0322 'International Tables Vol C Tables 4.2.6.8 and 6.1.1.4'

_shelx_space_group_comment       
;
The symmetry employed for this shelxl refinement is uniquely defined
by the following loop, which should always be used as a source of
symmetry information in preference to the above space-group names.
They are only intended as comments.
;
_space_group_crystal_system      monoclinic
_space_group_IT_number           14
_space_group_name_H-M_alt        'P 1 21/n 1'
_space_group_name_Hall           '-P 2yn'
loop_
_space_group_symop_operation_xyz
'x, y, z'
'-x+1/2, y+1/2, -z+1/2'
'-x, -y, -z'
'x-1/2, -y-1/2, z-1/2'

_cell_length_a                   10.7045(2)
_cell_length_b                   8.60470(10)
_cell_length_c                   15.6254(3)
_cell_angle_alpha                90
_cell_angle_beta                 90.345(2)
_cell_angle_gamma                90
_cell_volume                     1439.21(4)
_cell_formula_units_Z            4
_cell_measurement_reflns_used    10435
_cell_measurement_temperature    293(2)
_cell_measurement_theta_max      77.0860
_cell_measurement_theta_min      2.8320
_shelx_estimated_absorpt_T_max   ?
_shelx_estimated_absorpt_T_min   ?
_exptl_absorpt_coefficient_mu    17.057
_exptl_absorpt_correction_T_max  1.00000
_exptl_absorpt_correction_T_min  0.20177
_exptl_absorpt_correction_type   multi-scan
_exptl_absorpt_process_details   
;
CrysAlisPro 1.171.38.40t (Rigaku Oxford Diffraction, 2015)
Empirical absorption correction using spherical harmonics,
 implemented in SCALE3 ABSPACK scaling algorithm.
;
_exptl_absorpt_special_details   ?
_exptl_crystal_colour            colourless
_exptl_crystal_density_diffrn    2.346
_exptl_crystal_density_meas      ?
_exptl_crystal_density_method    ?
_exptl_crystal_description       block
_exptl_crystal_F_000             1008
_exptl_crystal_size_max          0.20
_exptl_crystal_size_mid          0.14
_exptl_crystal_size_min          0.13
_exptl_transmission_factor_max   ?
_exptl_transmission_factor_min   ?
_diffrn_reflns_av_R_equivalents  0.0400
_diffrn_reflns_av_unetI/netI     0.0230
_diffrn_reflns_Laue_measured_fraction_full 0.996
_diffrn_reflns_Laue_measured_fraction_max 0.971
_diffrn_reflns_limit_h_max       13
_diffrn_reflns_limit_h_min       -13
_diffrn_reflns_limit_k_max       10
_diffrn_reflns_limit_k_min       -10
_diffrn_reflns_limit_l_max       13
_diffrn_reflns_limit_l_min       -19
_diffrn_reflns_number            12162
_diffrn_reflns_point_group_measured_fraction_full 0.996
_diffrn_reflns_point_group_measured_fraction_max 0.971
_diffrn_reflns_theta_full        67.684
_diffrn_reflns_theta_max         77.433
_diffrn_reflns_theta_min         4.994
_diffrn_ambient_temperature      293(2)
_diffrn_detector                 'CCD plate'
_diffrn_detector_area_resol_mean ?
_diffrn_measured_fraction_theta_full 0.996
_diffrn_measured_fraction_theta_max 0.971
_diffrn_measurement_details      
;
List of Runs (angles in degrees, time in seconds):

  # Type    Start    End  Width  t~exp~   \w     \q     \k     \f   Frames
#--------------------------------------------------------------------------
  1  \w    -76.00  14.00   1.00    6.00    --  -32.00   0.00-180.00   90
  2  \w    -47.00  14.00   1.00    6.00    --  -32.00  72.00-180.00   61
  3  \w    -78.00 -18.00   1.00    6.00    --  -32.00 -72.00 108.00   60
  4  \w    -78.00 -18.00   1.00    6.00    --  -32.00 -72.00-180.00   60
  5  \w    -55.00  58.00   1.00    6.00    --  -32.00   0.00-108.00  113
  6  \w    -47.00  14.00   1.00    6.00    --  -32.00  72.00 108.00   61
  7  \w    -78.00 -18.00   1.00    6.00    --  -32.00 -72.00-108.00   60
  8  \w   -200.00 -20.00   1.00   12.00    -- -110.00   0.00-108.00  180
  9  \w   -108.00 -29.00   1.00   12.00    -- -110.00  72.00-180.00   79
 10  \w   -115.00 -28.00   1.00   12.00    -- -110.00  72.00-108.00   87
 11  \w   -200.00-139.00   1.00   12.00    -- -110.00 -72.00 -36.00   61
 12  \w    -97.00 -37.00   1.00   12.00    -- -110.00  72.00  36.00   60
 13  \w   -200.00 -20.00   1.00   12.00    -- -110.00   0.00  36.00  180
 14  \w   -200.00-139.00   1.00   12.00    -- -110.00 -72.00  36.00   61
 15  \w   -106.00 -24.00   1.00   12.00    -- -110.00  72.00 108.00   82
 16  \w   -125.00 -64.00   1.00   12.00    -- -110.00  72.00 -36.00   61
 17  \w   -165.00-105.00   1.00   12.00    -- -110.00 -72.00-108.00   60
;
_diffrn_measurement_device       'abstract diffractometer'
_diffrn_measurement_device_type  
'dtrek-CrysAlisPro-abstract goniometer imported rigaku-d*trek images'
_diffrn_measurement_method       '\w scans'
_diffrn_orient_matrix_type       
'CrysAlisPro convention (1999,Acta A55,543-557)'
_diffrn_orient_matrix_UB_11      0.0719806000
_diffrn_orient_matrix_UB_12      0.1491821000
_diffrn_orient_matrix_UB_13      0.0234135000
_diffrn_orient_matrix_UB_21      0.1222115000
_diffrn_orient_matrix_UB_22      -0.0939389000
_diffrn_orient_matrix_UB_23      0.0058954000
_diffrn_orient_matrix_UB_31      0.0242639000
_diffrn_orient_matrix_UB_32      0.0307907000
_diffrn_orient_matrix_UB_33      -0.0956532000
_diffrn_radiation_monochromator  graphite
_diffrn_radiation_probe          x-ray
_diffrn_radiation_type           CuK\a
_diffrn_radiation_wavelength     1.54184
_diffrn_source                   'fine-focus sealed X-ray tube'
_diffrn_source_type              'Enhance (Cu) X-ray Source'
_reflns_Friedel_coverage         0.000
_reflns_Friedel_fraction_full    .
_reflns_Friedel_fraction_max     .
_reflns_number_gt                2874
_reflns_number_total             2975
_reflns_odcompleteness_completeness 97.01
_reflns_odcompleteness_iscentric 1
_reflns_odcompleteness_theta     77.22
_reflns_special_details          
;
 Reflections were merged by SHELXL according to the crystal
 class for the calculation of statistics and refinement.
 
 _reflns_Friedel_fraction is defined as the number of unique
 Friedel pairs measured divided by the number that would be
 possible theoretically, ignoring centric projections and
 systematic absences.
;
_reflns_threshold_expression     'I > 2\s(I)'
_computing_cell_refinement       'CrysAlisPro 1.171.38.40t (Rigaku OD, 2015)'
_computing_data_collection       'CrysAlisPro 1.171.38.40t (Rigaku OD, 2015)'
_computing_data_reduction        'CrysAlisPro 1.171.38.40t (Rigaku OD, 2015)'
_computing_molecular_graphics    'Olex2 (Dolomanov et al., 2009)'
_computing_publication_material  'Olex2 (Dolomanov et al., 2009)'
_computing_structure_refinement  'ShelXL (Sheldrick, 2015)'
_computing_structure_solution    ?
_refine_diff_density_max         0.598
_refine_diff_density_min         -1.305
_refine_diff_density_rms         0.165
_refine_ls_extinction_coef       .
_refine_ls_extinction_method     none
_refine_ls_goodness_of_fit_ref   1.053
_refine_ls_hydrogen_treatment    constr
_refine_ls_matrix_type           full
_refine_ls_number_parameters     226
_refine_ls_number_reflns         2975
_refine_ls_number_restraints     0
_refine_ls_R_factor_all          0.0428
_refine_ls_R_factor_gt           0.0416
_refine_ls_restrained_S_all      1.053
_refine_ls_shift/su_max          0.001
_refine_ls_shift/su_mean         0.000
_refine_ls_structure_factor_coef Fsqd
_refine_ls_weighting_details     
'w=1/[\s^2^(Fo^2^)+(0.0697P)^2^+2.5234P] where P=(Fo^2^+2Fc^2^)/3'
_refine_ls_weighting_scheme      calc
_refine_ls_wR_factor_gt          0.1087
_refine_ls_wR_factor_ref         0.1096
_refine_special_details          ?
_olex2_refinement_description    
;
1. Fixed Uiso
 At 1.2 times of:
  All C(H,H) groups, All N(H,H,H,H) groups
2. Others
 Fixed Sof: H1AA(0.69) H1AB(0.69) H1BC(0.31) H1BD(0.31) H2AA(0.69) H2AB(0.69)
 H2BC(0.31) H2BD(0.31) C6(0.69) H6A(0.69) H6B(0.69) C4(0.69) H4A(0.69)
 H4B(0.69) C7(0.31) H7A(0.31) H7B(0.31) C5(0.31) H5A(0.31) H5B(0.31)
3.a Secondary CH2 refined with riding coordinates:
 N1(H1AA,H1AB), N1(H1BC,H1BD), N2(H2AA,H2AB), N2(H2BC,H2BD), C2(H2A,H2B),
 C1(H1A,H1B), C3(H3A,H3B), C6(H6A,H6B), C4(H4A,H4B), C7(H7A,H7B), C5(H5A,H5B)
;
_atom_sites_solution_hydrogens   geom
_atom_sites_solution_primary     ?
_atom_sites_solution_secondary   ?
loop_
_atom_site_label
_atom_site_type_symbol
_atom_site_fract_x
_atom_site_fract_y
_atom_site_fract_z
_atom_site_U_iso_or_equiv
_atom_site_adp_type
_atom_site_occupancy
_atom_site_site_symmetry_order
_atom_site_calc_flag
_atom_site_refinement_flags_posn
_atom_site_refinement_flags_adp
_atom_site_refinement_flags_occupancy
_atom_site_disorder_assembly
_atom_site_disorder_group
Ag1 Ag 0.76296(3) 0.46057(3) 0.75493(2) 0.04094(14) Uani 1 1 d . . . . .
Cl2 Cl 0.73575(6) 0.23037(9) 0.57897(4) 0.02275(18) Uani 1 1 d . . . . .
Cl1 Cl 0.52907(7) 0.69879(9) 0.66828(5) 0.02847(19) Uani 1 1 d . . . . .
Cl3 Cl 0.50901(9) 0.20857(10) 0.83045(6) 0.0357(2) Uani 1 1 d . . . . .
O6 O 0.6585(3) 0.2457(4) 0.50474(18) 0.0444(7) Uani 1 1 d . . . . .
O1 O 0.6009(3) 0.6659(5) 0.7444(2) 0.0602(10) Uani 1 1 d . . . . .
O5 O 0.8136(3) 0.3642(4) 0.5894(2) 0.0544(8) Uani 1 1 d . . . . .
O2 O 0.5760(3) 0.8362(4) 0.6296(2) 0.0572(9) Uani 1 1 d . . . . .
O11 O 0.5032(4) 0.0536(4) 0.7973(2) 0.0624(10) Uani 1 1 d . . . . .
O7 O 0.8142(3) 0.0965(4) 0.5729(2) 0.0540(8) Uani 1 1 d . . . . .
O3 O 0.4018(3) 0.7209(5) 0.6913(2) 0.0560(9) Uani 1 1 d . . . . .
O8 O 0.6572(3) 0.2143(6) 0.6521(2) 0.0653(12) Uani 1 1 d . . . . .
O9 O 0.4469(4) 0.3112(4) 0.7723(2) 0.0575(9) Uani 1 1 d . . . . .
N1 N 0.3948(3) 0.2804(4) 0.5819(2) 0.0387(8) Uani 1 1 d . . . . .
H1AA H 0.4332 0.3020 0.5330 0.046 Uiso 0.69 1 calc R . P A 1
H1AB H 0.4501 0.2950 0.6239 0.046 Uiso 0.69 1 calc R . P A 1
H1BC H 0.4035 0.3122 0.6358 0.046 Uiso 0.31 1 calc R . P B 2
H1BD H 0.4673 0.2942 0.5555 0.046 Uiso 0.31 1 calc R . P B 2
O4 O 0.5426(4) 0.5746(4) 0.6086(3) 0.0599(9) Uani 1 1 d . . . . .
O12 O 0.4519(4) 0.2168(5) 0.9121(2) 0.0632(10) Uani 1 1 d . . . . .
O10 O 0.6384(4) 0.2514(6) 0.8390(2) 0.0685(11) Uani 1 1 d . . . . .
N2 N 0.0881(3) 0.2675(5) 0.5974(3) 0.0442(8) Uani 1 1 d . . . . .
H2AA H 0.0105 0.2755 0.5770 0.053 Uiso 0.69 1 calc R . P C 1
H2AB H 0.0884 0.3037 0.6507 0.053 Uiso 0.69 1 calc R . P C 1
H2BC H 0.0347 0.2833 0.6400 0.053 Uiso 0.31 1 calc R . P D 2
H2BD H 0.0471 0.2856 0.5487 0.053 Uiso 0.31 1 calc R . P D 2
C2 C 0.2512(4) 0.0695(5) 0.6357(3) 0.0413(9) Uani 1 1 d . . . . .
H2A H 0.2562 -0.0406 0.6485 0.050 Uiso 1 1 calc R . . . .
H2B H 0.2588 0.1251 0.6895 0.050 Uiso 1 1 calc R . . . .
C1 C 0.3613(4) 0.1119(5) 0.5808(3) 0.0412(9) Uani 1 1 d . . . . .
H1A H 0.4332 0.0523 0.5999 0.049 Uiso 1 1 calc R . . . .
H1B H 0.3432 0.0815 0.5222 0.049 Uiso 1 1 calc R . . . .
C3 C 0.1246(4) 0.1024(5) 0.5987(3) 0.0436(10) Uani 1 1 d . . . . .
H3A H 0.1221 0.0632 0.5405 0.052 Uiso 1 1 calc R . . . .
H3B H 0.0631 0.0450 0.6313 0.052 Uiso 1 1 calc R . . . .
C6 C 0.2867(6) 0.4029(6) 0.5938(5) 0.0366(12) Uani 0.69 1 d . . P E 1
H6A H 0.2671 0.4109 0.6542 0.044 Uiso 0.69 1 calc R . P E 1
H6B H 0.3160 0.5038 0.5749 0.044 Uiso 0.69 1 calc R . P E 1
C4 C 0.1708(5) 0.3624(7) 0.5455(4) 0.0378(13) Uani 0.69 1 d . . P E 1
H4A H 0.1278 0.4569 0.5287 0.045 Uiso 0.69 1 calc R . P E 1
H4B H 0.1926 0.3061 0.4940 0.045 Uiso 0.69 1 calc R . P E 1
C7 C 0.3017(10) 0.3689(13) 0.5409(9) 0.025(2) Uani 0.31 1 d . . P E 2
H7A H 0.2674 0.3125 0.4925 0.030 Uiso 0.31 1 calc R . P E 2
H7B H 0.3361 0.4663 0.5206 0.030 Uiso 0.31 1 calc R . P E 2
C5 C 0.2025(12) 0.3982(13) 0.6061(9) 0.032(2) Uani 0.31 1 d . . P E 2
H5A H 0.1685 0.5017 0.5980 0.038 Uiso 0.31 1 calc R . P E 2
H5B H 0.2389 0.3930 0.6631 0.038 Uiso 0.31 1 calc R . P E 2

loop_
_atom_site_aniso_label
_atom_site_aniso_U_11
_atom_site_aniso_U_22
_atom_site_aniso_U_33
_atom_site_aniso_U_23
_atom_site_aniso_U_13
_atom_site_aniso_U_12
Ag1 0.0470(2) 0.0364(2) 0.0393(2) -0.00119(11) -0.00575(13) 0.00093(11)
Cl2 0.0151(3) 0.0340(4) 0.0191(3) 0.0021(3) -0.0053(2) -0.0009(3)
Cl1 0.0273(4) 0.0322(4) 0.0258(4) 0.0042(3) -0.0110(3) -0.0013(3)
Cl3 0.0474(5) 0.0327(5) 0.0272(4) -0.0033(3) 0.0078(3) 0.0028(3)
O6 0.0391(14) 0.0646(19) 0.0292(14) 0.0045(13) -0.0208(12) 0.0003(14)
O1 0.0470(17) 0.097(3) 0.0368(16) 0.0131(17) -0.0265(14) 0.0001(18)
O5 0.0426(16) 0.0407(17) 0.080(2) 0.0044(16) -0.0213(15) -0.0154(13)
O2 0.062(2) 0.0410(17) 0.068(2) 0.0197(16) 0.0111(17) -0.0001(15)
O11 0.103(3) 0.0334(16) 0.051(2) -0.0060(14) 0.002(2) 0.0083(17)
O7 0.0534(18) 0.0460(18) 0.062(2) -0.0140(15) -0.0239(15) 0.0204(15)
O3 0.0311(15) 0.084(3) 0.0529(19) 0.0122(17) -0.0014(13) 0.0071(15)
O8 0.0321(15) 0.131(4) 0.0326(16) 0.0218(18) 0.0088(12) 0.0056(18)
O9 0.067(2) 0.0529(19) 0.0521(19) 0.0061(15) 0.0054(16) 0.0280(17)
N1 0.0170(12) 0.053(2) 0.0462(19) 0.0144(15) -0.0038(12) -0.0092(12)
O4 0.059(2) 0.0476(18) 0.073(2) -0.0235(17) -0.0175(17) 0.0040(16)
O12 0.079(3) 0.074(3) 0.0366(17) -0.0097(15) 0.0254(17) -0.0094(19)
O10 0.054(2) 0.106(3) 0.045(2) 0.012(2) 0.0005(16) -0.022(2)
N2 0.0189(13) 0.051(2) 0.063(2) 0.0085(17) 0.0069(14) 0.0075(13)
C2 0.037(2) 0.0288(18) 0.058(3) 0.0196(18) 0.0081(18) 0.0031(15)
C1 0.0264(16) 0.042(2) 0.055(2) 0.0011(18) 0.0070(16) 0.0060(15)
C3 0.0280(17) 0.040(2) 0.062(3) -0.0085(19) 0.0070(17) -0.0096(16)
C6 0.024(3) 0.024(3) 0.062(4) -0.001(3) -0.013(3) -0.005(2)
C4 0.025(2) 0.038(3) 0.050(3) 0.016(3) -0.014(2) -0.004(2)
C7 0.023(5) 0.023(5) 0.030(6) 0.008(5) 0.000(4) 0.000(4)
C5 0.025(6) 0.021(5) 0.049(8) -0.005(5) -0.002(5) 0.003(4)

_geom_special_details            
;
 All esds (except the esd in the dihedral angle between two l.s. planes)
 are estimated using the full covariance matrix.  The cell esds are taken
 into account individually in the estimation of esds in distances, angles
 and torsion angles; correlations between esds in cell parameters are only
 used when they are defined by crystal symmetry.  An approximate (isotropic)
 treatment of cell esds is used for estimating esds involving l.s. planes.
;
loop_
_geom_bond_atom_site_label_1
_geom_bond_atom_site_label_2
_geom_bond_distance
_geom_bond_site_symmetry_2
_geom_bond_publ_flag
Ag1 O1 2.480(4) . ?
Cl2 O6 1.426(2) . ?
Cl2 O5 1.431(3) . ?
Cl2 O7 1.429(3) . ?
Cl2 O8 1.430(3) . ?
Cl1 O1 1.441(3) . ?
Cl1 O2 1.421(3) . ?
Cl1 O3 1.424(3) . ?
Cl1 O4 1.426(3) . ?
Cl3 O11 1.431(3) . ?
Cl3 O9 1.428(3) . ?
Cl3 O12 1.420(3) . ?
Cl3 O10 1.439(4) . ?
N1 C1 1.494(6) . ?
N1 C6 1.577(7) . ?
N1 C7 1.405(11) . ?
N2 C3 1.473(6) . ?
N2 C4 1.455(7) . ?
N2 C5 1.668(13) . ?
C2 C1 1.507(5) . ?
C2 C3 1.498(6) . ?
C6 C4 1.490(7) . ?
C7 C5 1.497(16) . ?

loop_
_geom_angle_atom_site_label_1
_geom_angle_atom_site_label_2
_geom_angle_atom_site_label_3
_geom_angle
_geom_angle_site_symmetry_1
_geom_angle_site_symmetry_3
_geom_angle_publ_flag
O6 Cl2 O5 110.7(2) . . ?
O6 Cl2 O7 111.0(2) . . ?
O6 Cl2 O8 108.56(19) . . ?
O7 Cl2 O5 108.3(2) . . ?
O7 Cl2 O8 108.9(2) . . ?
O8 Cl2 O5 109.4(2) . . ?
O2 Cl1 O1 109.1(2) . . ?
O2 Cl1 O3 109.7(2) . . ?
O2 Cl1 O4 107.9(2) . . ?
O3 Cl1 O1 108.9(2) . . ?
O3 Cl1 O4 111.5(2) . . ?
O4 Cl1 O1 109.7(2) . . ?
O11 Cl3 O10 108.2(3) . . ?
O9 Cl3 O11 109.1(2) . . ?
O9 Cl3 O10 110.2(2) . . ?
O12 Cl3 O11 110.7(2) . . ?
O12 Cl3 O9 109.8(2) . . ?
O12 Cl3 O10 108.9(2) . . ?
Cl1 O1 Ag1 124.4(2) . . ?
C1 N1 C6 118.3(3) . . ?
C7 N1 C1 110.6(6) . . ?
C3 N2 C5 117.0(5) . . ?
C4 N2 C3 112.7(4) . . ?
C3 C2 C1 116.3(4) . . ?
N1 C1 C2 114.6(3) . . ?
N2 C3 C2 115.3(3) . . ?
C4 C6 N1 113.2(5) . . ?
N2 C4 C6 110.9(5) . . ?
N1 C7 C5 106.6(10) . . ?
C7 C5 N2 110.7(9) . . ?

loop_
_geom_hbond_atom_site_label_D
_geom_hbond_atom_site_label_H
_geom_hbond_atom_site_label_A
_geom_hbond_distance_DH
_geom_hbond_distance_HA
_geom_hbond_distance_DA
_geom_hbond_angle_DHA
_geom_hbond_site_symmetry_A
N1 H1AB O8 0.89 2.36 3.063(4) 135.7 .
N1 H1BC O9 0.89 2.18 3.035(5) 160.9 .
N1 H1BD O6 0.89 2.24 3.092(4) 160.4 .
N2 H2AA O5 0.89 2.25 3.056(4) 150.1 1_455
N2 H2AB O11 0.89 2.50 3.122(5) 127.3 2_556
C4 H4A O5 0.97 2.49 3.164(6) 126.8 3_666

_shelx_res_file                  
;
    190906_sy_hpz+ag+hclo4_cu(1).res created by SHELXL-2014/7

TITL 190906_sy_1_mpz_nh2oh_cu_a.res in P2(1)/n
REM Old TITL 190906_SY_1_MPZ_NH2OH_Cu in P2(1)/n
REM SHELXT solution in P2(1)/n
REM R1 0.118, Rweak 0.009, Alpha 0.033, Orientation as input
REM Formula found by SHELXT: C4 N2 O13 Cl3 Ag
CELL 1.54184 10.7045 8.6047 15.6254 90 90.345 90
ZERR 4 0.0002 0.0001 0.0003 0 0.002 0
LATT 1
SYMM 0.5-X,0.5+Y,0.5-Z
SFAC C H Ag Cl N O
UNIT 20 56 4 12 8 48
EQIV $1 -1+X,+Y,+Z
EQIV $2 0.5-X,0.5+Y,1.5-Z
EQIV $3 1-X,1-Y,1-Z

L.S. 20
PLAN  20
HTAB N1 O6
HTAB N1 O8
HTAB N1 O9
HTAB N2 O5_$1
HTAB N2 O11_$2
HTAB C4 O5_$3
list 4
fmap 2 53
acta
OMIT 1 2 4
OMIT 3 0 1
REM <olex2.extras>
REM <HklSrc "%.\\190906_SY_hpz+Ag+HClO4_Cu%20(1).hkl">
REM </olex2.extras>

WGHT    0.069700    2.523400
FVAR       0.36358
AG1   3    0.762958    0.460566    0.754930    11.00000    0.04704    0.03645 =
         0.03925   -0.00119   -0.00575    0.00093
CL2   4    0.735754    0.230369    0.578973    11.00000    0.01509    0.03399 =
         0.01909    0.00213   -0.00530   -0.00092
CL1   4    0.529074    0.698789    0.668276    11.00000    0.02728    0.03216 =
         0.02582    0.00420   -0.01099   -0.00128
CL3   4    0.509012    0.208565    0.830445    11.00000    0.04744    0.03271 =
         0.02719   -0.00330    0.00782    0.00281
O6    6    0.658544    0.245672    0.504742    11.00000    0.03910    0.06462 =
         0.02919    0.00448   -0.02083    0.00034
O1    6    0.600915    0.665857    0.744414    11.00000    0.04698    0.09657 =
         0.03678    0.01311   -0.02649    0.00005
O5    6    0.813605    0.364246    0.589429    11.00000    0.04259    0.04071 =
         0.07961    0.00439   -0.02127   -0.01544
O2    6    0.575961    0.836196    0.629558    11.00000    0.06246    0.04101 =
         0.06814    0.01969    0.01113   -0.00012
O11   6    0.503184    0.053643    0.797318    11.00000    0.10323    0.03338 =
         0.05051   -0.00602    0.00242    0.00833
O7    6    0.814168    0.096476    0.572927    11.00000    0.05341    0.04597 =
         0.06230   -0.01396   -0.02392    0.02044
O3    6    0.401767    0.720896    0.691310    11.00000    0.03106    0.08395 =
         0.05287    0.01219   -0.00141    0.00710
O8    6    0.657158    0.214250    0.652143    11.00000    0.03206    0.13146 =
         0.03258    0.02177    0.00884    0.00555
O9    6    0.446908    0.311151    0.772337    11.00000    0.06744    0.05295 =
         0.05212    0.00613    0.00540    0.02798
N1    5    0.394754    0.280369    0.581947    11.00000    0.01703    0.05288 =
         0.04618    0.01438   -0.00376   -0.00922
PART 1
AFIX  23
H1AA  2    0.433200    0.301984    0.533024    10.69000   -1.20000
H1AB  2    0.450098    0.294981    0.623914    10.69000   -1.20000
AFIX  23
PART 0
PART 2
H1BC  2    0.403467    0.312241    0.635840    10.31000   -1.20000
H1BD  2    0.467343    0.294233    0.555541    10.31000   -1.20000
AFIX   0

PART 0
O4    6    0.542565    0.574577    0.608610    11.00000    0.05919    0.04760 =
         0.07281   -0.02353   -0.01748    0.00405

O12   6    0.451916    0.216836    0.912112    11.00000    0.07911    0.07417 =
         0.03661   -0.00968    0.02536   -0.00936
O10   6    0.638386    0.251423    0.838977    11.00000    0.05424    0.10650 =
         0.04467    0.01162    0.00049   -0.02154
N2    5    0.088082    0.267455    0.597407    11.00000    0.01890    0.05106 =
         0.06258    0.00845    0.00688    0.00754
PART 1
AFIX  23
H2AA  2    0.010539    0.275469    0.577014    10.69000   -1.20000
H2AB  2    0.088354    0.303731    0.650748    10.69000   -1.20000
AFIX  23
PART 0
PART 2
H2BC  2    0.034718    0.283343    0.639980    10.31000   -1.20000
H2BD  2    0.047080    0.285568    0.548701    10.31000   -1.20000
AFIX   0
PART 0
C2    1    0.251233    0.069505    0.635693    11.00000    0.03739    0.02881 =
         0.05787    0.01956    0.00806    0.00306
AFIX  23
H2A   2    0.256156   -0.040623    0.648535    11.00000   -1.20000
H2B   2    0.258816    0.125089    0.689481    11.00000   -1.20000
AFIX   0
C1    1    0.361316    0.111865    0.580788    11.00000    0.02637    0.04196 =
         0.05532    0.00108    0.00700    0.00597
AFIX  23
H1A   2    0.433222    0.052342    0.599867    11.00000   -1.20000
H1B   2    0.343168    0.081541    0.522230    11.00000   -1.20000
AFIX   0
C3    1    0.124607    0.102393    0.598658    11.00000    0.02804    0.04028 =
         0.06246   -0.00852    0.00699   -0.00965
AFIX  23
H3A   2    0.122087    0.063231    0.540462    11.00000   -1.20000
H3B   2    0.063091    0.045030    0.631266    11.00000   -1.20000
AFIX   0
PART 1
C6    1    0.286714    0.402874    0.593800    10.69000    0.02426    0.02375 =
         0.06152   -0.00083   -0.01272   -0.00461
AFIX  23
H6A   2    0.267135    0.410870    0.654171    10.69000   -1.20000
H6B   2    0.315953    0.503814    0.574877    10.69000   -1.20000
AFIX   0
C4    1    0.170760    0.362361    0.545539    10.69000    0.02522    0.03770 =
         0.05030    0.01557   -0.01376   -0.00351
AFIX  23
H4A   2    0.127817    0.456907    0.528704    10.69000   -1.20000
H4B   2    0.192605    0.306068    0.493969    10.69000   -1.20000
AFIX   0
PART 0
PART 2
C7    1    0.301711    0.368875    0.540942    10.31000    0.02291    0.02282 =
         0.02989    0.00820    0.00001    0.00000
AFIX  23
H7A   2    0.267398    0.312460    0.492468    10.31000   -1.20000
H7B   2    0.336070    0.466330    0.520601    10.31000   -1.20000
AFIX   0
C5    1    0.202512    0.398248    0.606114    10.31000    0.02534    0.02090 =
         0.04935   -0.00529   -0.00231    0.00272
AFIX  23
H5A   2    0.168492    0.501733    0.598039    10.31000   -1.20000
H5B   2    0.238867    0.393012    0.663054    10.31000   -1.20000
AFIX   0
HKLF 4

REM  190906_sy_1_mpz_nh2oh_cu_a.res in P2(1)/n
REM R1 =  0.0416 for    2874 Fo > 4sig(Fo)  and  0.0428 for all    2975 data
REM    226 parameters refined using      0 restraints

END

WGHT      0.0697      2.5237

REM Highest difference peak  0.598,  deepest hole -1.305,  1-sigma level  0.165
Q1    1   0.5027  0.1386  0.9255  11.00000  0.05    0.60
Q2    1   0.7574  0.3581  0.7564  11.00000  0.05    0.53
Q3    1   0.7465  0.2568  0.4827  11.00000  0.05    0.48
Q4    1   0.1736  0.0752  0.6198  11.00000  0.05    0.47
Q5    1   0.0683  0.2776  0.6807  11.00000  0.05    0.45
Q6    1   0.8848  0.4634  0.7809  11.00000  0.05    0.44
Q7    1   0.4002  0.6217  0.6803  11.00000  0.05    0.43
Q8    1   0.3027  0.2054  0.9364  11.00000  0.05    0.42
Q9    1   0.6381  0.4614  0.7222  11.00000  0.05    0.41
Q10   1   0.3406  0.7344  0.6116  11.00000  0.05    0.40
Q11   1   0.3956  0.1813  0.8874  11.00000  0.05    0.39
Q12   1   0.4740  0.1359  0.8192  11.00000  0.05    0.39
Q13   1   0.3915  0.7131  0.7784  11.00000  0.05    0.39
Q14   1   0.1343  0.1942  0.6807  11.00000  0.05    0.38
Q15   1   0.9117  0.0652  0.6053  11.00000  0.05    0.38
Q16   1   0.5102  0.2584  0.4664  11.00000  0.05    0.38
Q17   1   0.4320  0.4250  0.6550  11.00000  0.05    0.38
Q18   1   0.5376  0.7658  0.5727  11.00000  0.05    0.37
Q19   1   0.3907  0.0549  0.4470  11.00000  0.05    0.37
Q20   1  -0.0613  0.1768  0.5957  11.00000  0.05    0.36
;
_shelx_res_checksum              87304
_shelx_hkl_file                  
;
   0   0   1    0.36    0.13
   0   0   1    0.16    0.08
   0   0   2 3274.06   11.76
   0   0   2 3276.21    9.03
   0   0  -3    0.24    0.07
   0   0  -3    0.02    0.07
   0   0  -3    0.16    0.23
   0   0  -3    0.21    0.24
   0   0  -4  129.38    2.37
   0   0  -4  129.53    2.78
   0   0  -5    1.01    0.51
   0   0  -5    1.20    0.36
   0   0  -6 3532.64   17.83
   0   0  -7    0.75    0.54
   0   0   7    0.94    0.54
   0   0  -7    0.17    0.26
   0   0   8  397.42    8.37
   0   0  -9    1.68    0.75
   0   0   9    0.18    0.62
   0   0 -10  775.18   12.11
   0   0  10  758.49   15.27
   0   0  11    2.04    1.28
   0   0  11    0.28    1.04
   0   0 -12 4412.47   24.40
   0   0 -12 4404.79   23.47
   0   0 -13    0.02    0.81
   0   0 -13   -0.10    0.90
   0   0  13    0.74    1.05
   0   0 -13    0.57    0.67
   0   0 -14  367.92    6.99
   0   0 -14  355.39    7.65
   0   0 -15   -0.03    0.76
   0   0 -15    0.70    0.82
   0   0 -16   50.15    2.60
   0   0 -16   46.18    2.74
   0   0 -17    0.32    0.66
   0   0 -18   44.49    1.98
   0   1   0    0.14    0.13
   0   1   0    5.87    0.33
   0  -1   0    1.31    0.24
   0  -1   0    4.53    0.37
   0   1  -1   21.23    0.68
   0  -1  -1   23.38    0.76
   0   1   1   21.97    0.79
   0  -1  -1   20.73    0.79
   0  -1   1   26.90    0.73
   0  -1   1   24.44    0.84
   0  -1  -1   24.01    0.86
   0  -1  -2    7.75    0.51
   0   1   2    7.68    0.59
   0  -1   2    7.05    0.47
   0  -1  -2    7.63    0.62
   0   1  -2    5.77    0.37
   0  -1  -2    5.58    0.27
   0  -1   2    6.23    0.36
   0   1   2    6.43    0.48
   0   1   3   57.79    1.93
   0  -1  -3   59.06    1.43
   0   1   3   55.53    1.38
   0  -1  -3   58.51    1.92
   0   1   4 7924.79   25.67
   0  -1  -4 7895.26   16.91
   0  -1  -4 7771.59   23.21
   0   1  -4 7864.44    9.73
   0  -1   4 7714.97   16.26
   0  -1  -5   28.41    1.67
   0   1   5   27.68    1.47
   0  -1  -5   26.59    1.07
   0   1   5   27.15    1.87
   0  -1  -6  113.61    3.63
   0   1   6  107.83    3.28
   0  -1  -6  102.51    2.07
   0  -1  -6  108.38    2.89
   0   1   6  114.70    4.10
   0  -1  -7   29.80    1.51
   0  -1  -7   29.49    1.11
   0  -1  -7   31.36    2.12
   0   1   7   31.72    2.10
   0   1   7   29.97    2.37
   0   1   8  728.39   11.12
   0  -1  -8  731.81   10.57
   0  -1  -9  157.16    5.26
   0   1   9  171.08    6.09
   0  -1   9  160.21    6.46
   0  -1  10    1.08    0.94
   0   1  10    2.20    1.15
   0  -1 -11  317.96    8.71
   0  -1 -11  297.21    6.41
   0   1  11  308.39   10.13
   0  -1 -12   13.15    1.60
   0  -1 -12   11.98    1.99
   0  -1 -12   15.78    1.76
   0  -1  12    8.85    2.29
   0  -1  12   13.58    2.99
   0   1 -12   14.74    1.70
   0   1 -12   11.98    1.39
   0  -1 -12   12.00    1.42
   0   1  12    9.90    2.10
   0  -1 -13  175.72    5.39
   0   1 -13  183.90    5.37
   0  -1 -13  190.99    5.66
   0   1 -13  183.24    5.05
   0  -1 -13  176.64    5.21
   0  -1 -14   30.74    2.32
   0  -1 -14   31.62    2.34
   0  -1 -14   32.13    2.44
   0   1 -14   30.26    2.21
   0  -1 -15    2.73    0.92
   0  -1 -15    1.78    0.91
   0   1 -15    1.48    0.94
   0  -1 -15    1.76    0.96
   0   1 -15    2.31    0.90
   0  -1 -16  529.27    9.35
   0   1 -16  523.36    8.16
   0   1 -17   17.39    1.37
   0  -1 -17   20.55    1.38
   0  -1 -17   20.68    1.86
   0  -1 -18    8.26    1.08
   0   2   0 2325.58    9.58
   0  -2   0 2697.92   12.72
   0   2  -1  115.02    1.83
   0   2   1  102.61    2.48
   0   2   1  116.74    2.22
   0  -2  -1  105.40    2.31
   0  -2  -1  111.49    2.63
   0  -2   1  110.52    2.69
   0  -2   2 1792.20   10.63
   0  -2  -2 1769.29   10.60
   0  -2  -3  715.89    3.56
   0   2   3  827.63    7.73
   0  -2   3  765.63    4.46
   0  -2  -3  838.88    7.40
   0  -2   3  864.06    6.82
   0  -2   3  821.01    7.41
   0  -2  -3  888.21    8.40
   0  -2   4 3720.40   10.86
   0  -2  -4 3770.69   16.16
   0   2   4 3729.68   18.55
   0  -2   5 1305.36    9.52
   0  -2  -5 1223.56   12.09
   0   2  -6 2583.25    6.88
   0   2   6 2804.64   20.20
   0  -2  -6 2848.80   15.19
   0  -2  -6 2934.97   19.82
   0  -2   6 2858.69   13.22
   0  -2  -6 2698.79   16.74
   0  -2  -7  919.56    9.83
   0  -2  -7  919.37    8.70
   0  -2  -8 2596.41   21.78
   0  -2  -8 2568.74   16.06
   0  -2  -9  666.75    7.84
   0  -2  -9  637.52   11.50
   0  -2 -10  455.69   10.04
   0  -2 -10  450.83    6.38
   0   2  11    4.06    1.58
   0  -2 -11    4.24    1.12
   0  -2 -11    3.67    1.21
   0   2 -11    5.25    0.79
   0  -2  11    3.69    1.87
   0  -2 -11    4.55    1.12
   0  -2 -12  281.93    6.89
   0   2 -12  249.24    4.85
   0  -2 -12  238.08    8.57
   0  -2 -12  261.81    6.80
   0  -2 -12  235.76    6.60
   0   2  12  242.11    9.75
   0  -2  12  295.73   13.88
   0   2 -12  256.60    5.51
   0   2 -13    1.29    0.69
   0  -2 -13    1.63    0.99
   0  -2 -13    1.53    0.93
   0   2 -13    0.69    0.93
   0   2 -13    1.67    0.66
   0  -2 -13    2.34    1.14
   0  -2 -14  239.61    6.61
   0  -2 -14  252.68    7.28
   0   2 -14  227.83    4.83
   0  -2 -14  254.10    6.52
   0  -2 -14  245.54    6.55
   0   2 -14  242.41    5.62
   0   2 -14  256.78    6.41
   0   2 -15   71.34    3.27
   0  -2 -15   66.07    3.37
   0  -2 -15   66.60    3.36
   0  -2 -15   67.94    3.88
   0  -2 -16  254.14    6.85
   0   2 -16  271.81    5.74
   0  -2 -16  245.35    5.59
   0  -2 -16  274.80    6.05
   0  -2 -17   27.43    2.18
   0  -2 -17   28.35    1.79
   0   2 -17   24.22    1.52
   0  -2 -18   95.61    2.29
   0  -3   0    0.37    0.55
   0  -3   1  251.18    5.12
   0   3  -1  259.49    3.32
   0  -3  -1  246.72    4.18
   0  -3  -2  491.71    7.56
   0  -3  -2  513.49    6.65
   0  -3   2  519.01    7.42
   0   3   2  491.59    5.96
   0  -3   3  321.38    3.39
   0   3   3  362.72    5.69
   0   3   3  312.89    5.75
   0  -3  -3  349.58    3.32
   0  -3  -3  318.59    5.91
   0  -3  -3  334.97    6.06
   0  -3   3  294.02    3.87
   0   3   4  242.74    5.40
   0  -3   4  231.83    1.90
   0  -3  -4  260.32    5.39
   0  -3   4  257.52    5.54
   0  -3  -4  267.99    5.70
   0  -3  -5  165.30    4.90
   0   3   5  162.64    4.81
   0  -3   5  169.03    4.54
   0  -3  -6   14.12    1.37
   0  -3  -6   13.29    1.51
   0  -3  -6   15.09    1.68
   0  -3   6   15.09    1.49
   0  -3  -7    0.62    0.77
   0   3   7    0.37    0.76
   0  -3   7    1.86    0.66
   0  -3  -7    0.67    0.48
   0  -3  -8  496.29    8.03
   0  -3  -8  487.49    8.22
   0  -3  -8  495.80   10.73
   0   3   9  131.25    6.04
   0  -3  -9  126.06    4.13
   0  -3  -9  131.97    5.73
   0  -3  -9  141.66    4.30
   0   3  10  230.77    8.68
   0  -3 -10  231.10    6.20
   0  -3 -10  226.86    7.76
   0  -3 -10  213.58    6.16
   0  -3 -10  221.25    5.87
   0  -3 -11   50.07    3.16
   0  -3 -11   54.62    3.25
   0  -3 -11   44.97    2.86
   0  -3 -11   49.02    3.18
   0   3 -11   47.46    2.21
   0   3  11   47.39    4.24
   0  -3 -11   43.89    3.68
   0   3  11   45.67    4.48
   0  -3  11   51.80    5.50
   0  -3 -12   99.42    4.63
   0  -3 -12  109.05    4.62
   0   3 -12   95.80    3.24
   0  -3 -12   96.85    4.30
   0  -3 -13   30.60    2.55
   0  -3 -13   33.25    2.64
   0  -3 -13   33.71    2.92
   0   3 -13   28.53    1.88
   0  -3 -14    6.09    1.50
   0  -3 -14    5.96    1.50
   0   3 -14    7.22    1.38
   0   3 -14    5.70    1.00
   0  -3 -14    6.49    1.42
   0  -3 -15  345.49    8.59
   0  -3 -15  332.95    7.58
   0   3 -15  352.50    6.96
   0  -3 -15  341.53    7.71
   0   3 -16   90.50    3.21
   0  -3 -16   91.59    3.59
   0  -3 -16   86.70    4.17
   0   3 -17   81.81    2.45
   0  -3 -17  106.04    3.33
   0  -3 -17   98.13    3.88
   0  -3 -17   90.03    2.89
   0  -3 -18   20.38    1.55
   0  -3 -18   17.89    1.11
   0  -4   0 2055.19   17.68
   0  -4   0 2005.26   12.48
   0  -4   1 1910.50   10.95
   0  -4  -1 2110.29   17.92
   0   4   1 1892.22   12.39
   0  -4  -1 1945.56   13.55
   0  -4   1 2047.34   17.75
   0   4   2  819.48    9.34
   0  -4   2  845.09    6.18
   0  -4  -2  848.16    9.81
   0  -4  -2  851.62   11.54
   0  -4  -3 2016.40   17.71
   0   4   3 1942.12   15.24
   0  -4  -4  365.02    7.53
   0  -4   4  371.00    8.18
   0  -4  -4  359.95    7.60
   0  -4   5  299.50    7.42
   0   4   5  273.89    7.37
   0  -4  -5  280.04    6.77
   0  -4  -5  283.14    7.02
   0   4   6   16.56    1.88
   0  -4  -6   14.52    1.79
   0  -4  -6   13.57    1.60
   0   4   6   15.38    2.03
   0  -4  -7   22.52    2.04
   0   4   7   23.48    2.42
   0  -4  -7   19.01    2.01
   0   4   7   18.09    2.30
   0  -4  -8   28.29    2.81
   0   4   8   29.47    2.94
   0  -4  -8   28.88    2.35
   0  -4  -8   27.06    2.33
   0  -4  -9  342.29    7.81
   0  -4  -9  325.31    9.66
   0  -4  -9  313.25    7.68
   0   4  -9  333.31    5.62
   0   4   9  346.09   10.52
   0  -4  -9  323.51    7.94
   0  -4  -9  316.70    7.83
   0   4   9  326.25   10.39
   0  -4 -10  102.57    4.23
   0  -4 -10   99.81    5.53
   0   4  10  108.53    6.40
   0  -4 -10   96.33    4.62
   0   4  10   98.77    6.21
   0  -4 -10   89.10    4.39
   0   4 -10   98.63    3.27
   0  -4 -11 1489.12   18.21
   0  -4 -11 1605.84   19.00
   0   4 -11 1561.62   13.12
   0  -4 -11 1537.39   17.37
   0  -4 -12  653.71   12.47
   0   4 -12  637.96    8.75
   0  -4 -13  909.71   13.87
   0  -4 -13  932.35   15.51
   0  -4 -13  910.54   14.40
   0   4 -14   22.92    1.69
   0   4 -14   26.49    2.16
   0  -4 -14   29.06    2.69
   0  -4 -14   22.65    2.75
   0  -4 -14   24.31    2.35
   0  -4 -15  125.93    4.66
   0  -4 -15  119.51    5.20
   0   4 -15  121.75    3.90
   0   4 -16   24.18    1.57
   0  -4 -16   26.31    2.00
   0  -4 -16   29.74    2.48
   0  -4 -16   26.79    2.03
   0  -4 -17   17.07    1.70
   0  -4 -17   14.69    1.27
   0  -4 -17   16.30    1.39
   0  -4 -18   20.93    1.44
   0  -5   0    0.21    0.37
   0   5   0    0.32    0.37
   0   5   1  182.18    4.34
   0  -5  -1  162.09    6.06
   0  -5   1  167.94    3.75
   0  -5   1  168.17    6.19
   0  -5  -1  162.99    4.56
   0  -5  -2    0.10    0.57
   0  -5   2    0.98    0.78
   0   5   2    0.25    0.51
   0  -5  -2    1.86    0.72
   0  -5   3  384.01    9.75
   0  -5  -3  369.11    7.88
   0  -5  -3  375.65    9.26
   0   5   3  388.29    7.66
   0  -5  -4  258.19    7.06
   0  -5  -4  253.12    7.65
   0   5   5   84.38    4.33
   0  -5   5   87.24    4.87
   0  -5  -5   77.40    4.15
   0  -5  -5   78.56    4.27
   0   5   6  156.31    6.26
   0  -5   6  152.31    6.68
   0  -5  -7   71.21    3.11
   0   5   7   74.31    4.77
   0  -5  -7   68.60    4.18
   0  -5  -7   75.19    4.15
   0  -5  -7   70.56    3.66
   0   5  -7   72.41    2.71
   0  -5  -7   71.50    4.43
   0  -5  -7   75.97    3.49
   0  -5  -8    6.62    1.42
   0   5  -8    4.75    0.93
   0  -5  -8    4.66    1.09
   0   5   8    5.10    1.65
   0  -5  -8    4.56    1.25
   0  -5  -8    4.41    1.41
   0  -5  -8    4.86    0.98
   0  -5  -9  411.14   11.32
   0   5   9  461.82   13.64
   0  -5  -9  431.66    8.89
   0   5  -9  439.01    6.98
   0  -5  -9  398.50    7.55
   0  -5  -9  409.98    9.55
   0  -5  -9  414.35   10.27
   0  -5 -10   53.33    3.35
   0   5 -10   50.63    2.57
   0  -5 -10   50.46    3.77
   0  -5 -10   56.10    4.02
   0   5 -11  186.22    4.93
   0  -5 -11  180.61    7.01
   0  -5 -11  192.86    7.42
   0  -5 -11  189.68    6.39
   0   5 -12    0.77    0.81
   0  -5 -12    2.62    1.52
   0  -5 -12    1.47    1.44
   0  -5 -12    1.91    1.24
   0   5 -13    0.37    0.67
   0  -5 -13    0.82    1.24
   0  -5 -13    0.69    1.29
   0   5 -14    2.28    0.95
   0  -5 -14    5.27    1.38
   0  -5 -14    3.20    1.41
   0   5 -14    2.82    0.82
   0  -5 -14    3.81    1.47
   0  -5 -15   65.33    3.34
   0  -5 -15   66.56    3.72
   0  -5 -15   62.42    3.22
   0   5 -15   65.85    2.63
   0  -5 -16  139.74    4.03
   0  -5 -16  136.28    4.73
   0  -5 -17   18.83    1.55
   0  -5 -17   19.74    1.31
   0  -6   0  244.96    8.83
   0  -6  -1   60.73    3.23
   0  -6  -1   55.92    3.43
   0  -6  -1   46.74    2.77
   0  -6   1   43.02    3.79
   0  -6  -1   43.36    3.79
   0  -6  -2  216.11    5.99
   0  -6  -2  218.64    6.62
   0  -6  -2  231.09    6.57
   0  -6  -3 1246.50   15.67
   0  -6  -3 1170.43   15.93
   0  -6  -3 1217.46   14.15
   0  -6  -3 1167.04   19.31
   0  -6  -4  121.99    6.25
   0  -6  -4  113.89    4.42
   0   6  -4  118.76    3.41
   0  -6  -4  120.07    5.40
   0   6  -4  106.91    3.12
   0  -6  -4  111.69    4.78
   0  -6   4  124.28    6.56
   0   6   4  133.39    5.53
   0  -6   4  123.64    5.01
   0  -6  -5 1689.29   18.39
   0   6  -5 1633.63   11.68
   0   6  -5 1722.94   13.17
   0  -6  -5 1658.53   20.78
   0  -6   5 1748.45   19.27
   0  -6  -5 1580.26   20.95
   0  -6  -5 1644.25   16.93
   0  -6  -5 1602.18   17.34
   0  -6   5 1651.78   24.60
   0  -6  -5 1631.42   22.73
   0   6   5 1770.73   21.51
   0  -6  -6   66.19    4.69
   0  -6  -6   69.52    4.51
   0  -6  -6   69.58    3.52
   0  -6  -6   73.60    3.95
   0  -6  -6   73.42    4.63
   0   6   6   81.56    5.17
   0  -6  -7 1649.10   24.02
   0  -6  -7 1544.48   16.13
   0  -6  -7 1490.92   16.10
   0  -6  -7 1469.74   18.04
   0  -6  -7 1519.54   17.56
   0   6  -7 1567.39   13.32
   0  -6  -7 1447.12   21.78
   0  -6  -7 1578.60   21.40
   0  -6  -8   44.81    3.48
   0  -6  -8   51.98    3.21
   0  -6  -8   54.71    4.24
   0   6  -8   52.00    2.63
   0  -6  -8   49.11    3.00
   0  -6  -9  708.13   14.84
   0   6   9  686.13   10.39
   0  -6  -9  707.46   10.68
   0  -6  -9  692.35   13.24
   0   6  -9  705.95    9.56
   0  -6 -10  139.68    4.55
   0  -6 -10  144.00    5.46
   0   6  10  135.11    4.66
   0  -6 -10  144.67    6.26
   0   6 -10  148.48    4.43
   0   6 -11   40.91    2.40
   0  -6 -11   43.37    3.10
   0  -6 -11   39.68    3.79
   0  -6 -11   36.71    3.35
   0  -6 -12   25.96    2.96
   0  -6 -12   21.84    2.71
   0  -6 -12   26.93    2.44
   0   6 -12   24.03    1.85
   0  -6 -13   19.68    2.57
   0  -6 -13   15.16    1.85
   0  -6 -13   15.82    2.13
   0   6 -13   15.10    1.41
   0  -6 -14   39.49    2.59
   0  -6 -14   35.62    2.74
   0   6 -14   35.28    2.00
   0  -6 -14   40.43    3.09
   0  -6 -15   92.26    3.37
   0   6 -15   84.00    2.43
   0  -6 -15   92.17    3.47
   0  -6 -16    2.10    0.68
   0  -6 -16    1.88    0.70
   0  -7   0   -0.04    0.95
   0  -7   0    1.71    1.23
   0  -7   0    0.04    1.01
   0  -7  -1    3.90    1.52
   0  -7  -1    5.66    1.51
   0  -7   1    5.31    1.57
   0  -7   1    5.14    1.40
   0  -7  -1    6.31    1.87
   0   7  -2  497.23    7.51
   0  -7  -2  517.38   10.78
   0  -7  -2  494.86    9.78
   0  -7   2  501.77   11.02
   0  -7  -3  329.67    9.46
   0  -7   3  298.71    8.62
   0   7  -3  294.83    5.64
   0   7  -3  331.29    6.00
   0  -7  -3  307.60    7.82
   0  -7  -3  312.82    8.51
   0  -7  -4    1.57    1.21
   0  -7  -4    1.35    1.16
   0  -7  -4    0.94    1.06
   0   7  -4    0.64    0.54
   0   7  -4    0.81    0.66
   0  -7   4    1.05    1.04
   0  -7  -5   96.82    4.73
   0  -7  -5   92.80    4.04
   0  -7   5   94.32    5.09
   0  -7  -5   86.29    4.49
   0   7  -5   85.98    2.99
   0   7  -5   89.99    3.31
   0  -7  -5   96.66    5.08
   0  -7  -6   25.25    2.69
   0  -7  -6   31.76    2.49
   0  -7  -6   31.24    2.69
   0   7  -6   28.72    1.98
   0  -7  -7   67.45    3.81
   0   7   7   66.05    3.43
   0  -7  -7   67.69    3.66
   0  -7  -8   67.49    4.31
   0  -7  -8   72.24    3.86
   0  -7  -8   72.36    5.26
   0  -7  -8   69.78    3.72
   0   7  -8   71.65    3.19
   0   7   8   69.02    3.45
   0  -7  -9   66.84    3.68
   0  -7  -9   64.89    4.87
   0  -7  -9   70.59    4.33
   0   7   9   67.08    3.38
   0   7  -9   65.80    2.98
   0  -7  -9   64.21    3.39
   0   7 -10   14.99    1.53
   0  -7 -10   18.09    2.40
   0   7  10   15.43    1.68
   0  -7 -10   15.62    1.90
   0  -7 -10   14.95    2.49
   0  -7 -10   16.19    1.64
   0  -7 -11   70.39    4.17
   0  -7 -11   70.23    4.63
   0   7 -11   68.21    2.89
   0  -7 -12   34.63    2.44
   0   7 -12   30.98    1.96
   0  -7 -12   33.37    2.78
   0  -7 -13   19.45    2.03
   0  -7 -13   15.67    1.63
   0   7 -14   94.45    2.46
   0  -7 -14  108.40    3.74
   0  -7 -15   41.90    1.85
   0  -8   0  209.00    7.87
   0   8   0  201.31    5.51
   0   8   1 1009.79   12.65
   0  -8   1 1036.34   17.41
   0  -8  -1 1072.55   17.54
   0   8  -1  980.11   11.80
   0   8   2  468.26    8.84
   0  -8   2  477.84   11.77
   0  -8  -2  467.22   11.79
   0  -8  -3   71.24    4.03
   0   8  -3   64.88    2.89
   0   8   3   72.96    3.69
   0  -8  -3   76.74    4.86
   0   8  -3   77.07    3.03
   0  -8   3   68.92    4.66
   0   8  -4   21.91    1.73
   0   8  -4   17.76    1.53
   0  -8   4   19.34    2.60
   0  -8  -4   19.83    2.35
   0  -8  -4   19.58    2.60
   0   8   4   21.26    2.10
   0  -8  -5  137.89    5.70
   0  -8   5  156.26    6.80
   0   8  -5  129.67    3.66
   0   8  -5  140.26    4.14
   0  -8  -5  151.59    6.23
   0   8   5  143.07    5.06
   0  -8  -6   31.44    2.90
   0   8  -6   30.05    2.04
   0   8   6   31.67    2.53
   0  -8  -6   32.77    2.98
   0  -8  -7   62.38    3.32
   0  -8  -7   62.93    3.94
   0   8  -7   62.86    2.86
   0  -8  -8   51.74    3.00
   0  -8  -8   49.82    3.11
   0  -8  -8   50.76    3.50
   0   8   8   51.24    2.96
   0  -8  -9   43.03    2.61
   0  -8  -9   42.01    2.67
   0   8   9   40.40    2.52
   0   8  -9   39.21    2.26
   0  -8 -10   84.03    3.53
   0   8 -10   80.09    2.94
   0   8  10   83.29    3.17
   0  -8 -10   85.80    4.14
   0  -8 -10   84.20    3.01
   0  -8 -11  325.17    6.29
   0  -8 -11  333.44    7.48
   0  -8 -12   13.57    1.25
   0  -8 -12   16.67    1.69
   0  -8 -13  206.92    4.36
   0   8 -13  135.11    2.54
   0  -9   0    0.19    1.34
   0   9   0    0.64    0.81
   0   9   1    1.08    0.91
   0  -9  -1    0.23    1.37
   0   9  -1    0.63    0.76
   0  -9  -2   77.70    4.96
   0  -9   2   78.57    5.06
   0   9  -2   63.95    2.95
   0   9   2   70.32    3.48
   0  -9  -3   60.41    4.54
   0   9  -3   54.24    2.51
   0   9   3   59.90    3.30
   0  -9  -4    6.36    1.78
   0   9  -4    5.28    0.89
   0   9   4    7.82    1.44
   0  -9   4    6.55    1.82
   0  -9  -5   23.45    2.63
   0  -9  -5   28.32    2.41
   0   9   5   25.68    2.19
   0   9  -5   20.39    1.34
   0  -9  -6    1.39    1.09
   0   9   6    1.99    1.00
   0  -9  -6    1.88    1.06
   0  -9  -7   22.01    2.10
   0  -9  -8   31.76    2.18
   0  -9  -8   36.21    2.48
   0   9   8   35.94    2.15
   0   9   9   -0.07    0.54
   0  -9  -9    0.39    0.75
   0  -9  -9    0.54    0.56
   0  -9 -10   86.89    3.03
   0  10   0   11.25    1.32
   0 -10   0   17.77    2.56
   0 -10  -1   39.10    3.43
   0 -10   1   39.14    3.48
   0  10   1   29.40    1.99
   0  10   2   33.66    2.23
   0  10  -2   31.81    1.78
   0  10   3   62.19    2.90
   0  10  -3   62.17    2.21
   0 -10  -4  213.80    6.74
   0  10   4  196.42    4.93
   0 -10  -5   47.25    2.99
   0  10   5   42.79    2.28
   0  10   6  206.99    4.55
   0 -10  -6  216.15    5.45
   0 -10  -7   73.18    2.65
   1   0 -17  276.55    5.49
   1   0 -16    2.04    0.87
   1   0 -15   14.45    1.66
   1   0 -15   14.46    1.49
   1   0 -14    0.04    0.62
   1   0 -14    0.07    0.72
   1   0 -14    0.39    0.80
   1   0 -13  656.63    9.80
   1   0 -13  653.15    9.51
   1   0 -12    0.47    0.67
  -1   0  12    0.19    0.94
   1   0 -12    0.16    0.77
  -1   0  12    0.20    0.87
   1   0 -12    1.32    0.78
  -1   0  11 2447.30   26.25
  -1   0  10   -0.09    0.66
  -1   0  10    1.26    0.82
  -1   0   9 1299.40   16.49
  -1   0   9 1183.92   15.97
   1   0  -8    1.84    0.57
   1   0  -7  602.08    8.96
   1   0  -6    0.35    0.42
   1   0  -6    0.76    0.58
   1   0  -5 2261.17   14.00
   1   0  -5 2476.91   14.62
  -1   0   4    1.96    0.15
   1   0  -4    0.64    0.12
   1   0  -4    1.44    0.50
   1   0  -4    1.01    0.54
   1   0  -3 1378.00   10.00
   1   0  -3 2076.25    6.63
  -1   0   2    0.26    0.18
   1   0  -2    0.53    0.34
   1   0  -2    0.29    0.19
  -1   0   1 4086.10   11.75
  -1   0   1 4425.93   15.01
   1   0  -1 4216.67    9.71
   1   0  -1 4025.73   13.95
  -1   0   1 4448.69   12.36
   1   0   0    0.22    0.21
  -1   0   0    0.10    0.16
  -1   0   0    0.64    0.20
  -1   0   0    0.07    0.17
   1   0   0   -0.02    0.24
   1   0   0    0.12    0.18
  -1   0  -1 3485.34   11.58
   1   0   1 3417.03   12.73
   1   0   2    0.23    0.28
   1   0   2    0.09    0.35
  -1   0  -2    0.90    0.28
  -1   0  -2    0.15    0.24
  -1   0  -2    0.18    0.21
   1   0   3 2651.11   10.15
  -1   0  -3 2844.87   10.65
  -1   0  -3 2725.16    9.41
  -1   0  -3 2763.27   11.23
   1   0   3 2815.90   13.88
  -1   0  -4    0.87    0.32
   1   0   4    0.31    0.43
  -1   0  -4    0.09    0.19
  -1   0  -4    0.23    0.34
  -1   0  -5 2902.91   14.85
   1   0   5 2872.99   17.37
  -1   0  -6    1.21    0.31
  -1   0  -6    0.69    0.19
   1   0   6    0.84    0.56
  -1   0  -6    0.23    0.40
  -1   0  -7 3880.29    9.65
  -1   0  -7 3944.20   10.74
   1   0   8    0.36    0.61
  -1   0  -8    0.10    0.51
   1   0   9 1065.42   16.90
  -1   0  -9  996.07   11.89
   1   0  10    0.32    0.87
   1   0  10    2.63    1.42
  -1   0 -10    3.04    0.92
   1   0  11 2359.94   30.78
  -1   0 -11 2077.21   20.44
  -1   0 -12    1.12    1.02
   1   0  12    0.07    1.33
  -1   0 -12    1.07    0.66
  -1   0 -13  674.44    9.42
  -1   0 -13  709.87   11.41
  -1   0 -14   -0.11    1.04
  -1   0 -14    0.16    0.85
  -1   0 -15   93.94    4.22
  -1   0 -15   88.53    4.03
  -1   0 -16    0.26    0.96
  -1   0 -16    0.51    0.83
  -1   0 -17  221.96    5.43
  -1   0 -17  213.69    5.02
  -1   0 -18    0.22    0.59
   1  -1 -18    8.05    0.96
   1  -1 -17   18.65    1.68
   1  -1 -17   20.96    1.47
   1  -1 -16   21.60    1.76
   1  -1 -16   21.13    1.96
   1  -1 -15    5.03    1.16
   1  -1 -15    4.82    1.21
   1   1 -15    5.53    1.04
   1   1 -14   85.60    3.38
   1  -1 -14   82.89    3.92
   1   1 -14   77.02    3.33
   1  -1 -14   77.56    3.60
   1  -1 -14   84.24    3.82
   1   1 -13   85.98    3.41
   1  -1 -13   79.86    3.63
   1  -1 -13   80.32    3.77
   1  -1 -13   84.62    3.83
   1   1 -13   80.17    3.35
  -1   1  12  148.73    8.04
   1  -1 -12  129.86    4.45
   1  -1 -12  130.90    4.50
  -1  -1  12  147.09    7.63
   1   1 -12  135.43    4.09
   1   1 -12  143.33    4.28
  -1   1  12  142.63    6.61
   1  -1 -12  119.61    4.49
  -1  -1  12  126.23    6.79
   1  -1 -11  336.19    6.74
   1  -1 -11  323.94    6.61
  -1   1  11  346.43    9.69
  -1   1  10   41.28    3.13
   1  -1 -10   43.00    3.31
   1  -1 -10   35.32    2.04
  -1   1   9   23.27    2.11
   1  -1  -9   19.02    2.05
  -1   1   8  143.42    4.82
   1  -1  -8  144.08    3.92
   1  -1  -8  137.74    4.78
   1  -1  -7  434.89    3.76
   1  -1  -7  434.85    7.71
  -1   1   7  424.86    4.02
   1  -1  -6  403.97    4.21
   1  -1  -6  400.72    6.53
  -1   1   6  415.52    5.08
   1  -1  -5   21.14    1.56
   1  -1  -5   24.71    1.06
  -1   1   5   22.37    1.37
  -1  -1   4   31.97    0.88
   1  -1  -4   34.86    1.87
  -1  -1   4   33.19    0.75
  -1  -1   3  223.00    2.23
  -1   1   3  228.46    3.03
   1  -1  -3  223.32    3.21
   1  -1  -3  228.33    3.90
  -1   1   2    7.72    0.50
  -1  -1   2    7.86    0.39
  -1  -1   2    7.84    0.44
   1   1  -2    5.99    0.39
  -1   1   2    6.17    0.67
   1  -1  -2    6.00    0.41
   1  -1  -2    8.28    0.72
  -1  -1   2    6.50    0.44
   1  -1  -1   98.46    1.54
   1  -1  -1   88.32    1.40
  -1  -1   1   96.53    1.65
  -1   1   1   96.31    1.80
  -1  -1   1  104.73    1.59
  -1  -1   1  105.36    1.81
   1   1  -1   84.89    1.41
  -1   1   1  110.17    2.28
   1  -1  -1  100.47    1.85
  -1   1   1  102.02    2.04
   1  -1   0    7.91    0.64
  -1   1   0    6.50    0.57
  -1  -1   0    6.16    0.40
  -1  -1   0    9.28    0.60
   1   1   0    6.72    0.44
   1  -1   0    8.26    0.61
  -1   1   0   -0.06    0.19
  -1   1   0    6.82    0.40
   1   1   0   13.57    0.58
   1  -1   0    6.64    0.49
   1  -1   1  129.91    2.52
  -1  -1  -1  126.69    2.02
  -1   1  -1  109.69    1.11
  -1  -1  -1  118.45    2.17
  -1   1  -1  118.01    2.24
   1  -1   1  133.43    2.50
   1   1   2   46.16    1.62
  -1  -1  -2   44.79    1.36
  -1  -1  -2   42.41    1.35
  -1   1  -2   42.71    1.41
   1   1   2   43.73    1.47
  -1   1  -2   42.49    0.63
  -1  -1  -3  290.43    3.51
   1   1   3  287.50    4.85
  -1   1  -3  278.92    2.44
  -1  -1  -4    9.28    0.69
  -1   1  -4   11.08    0.71
   1   1   5    2.33    0.87
   1  -1   5    2.22    0.47
  -1  -1  -5    3.09    0.44
  -1   1  -5    2.96    0.36
  -1   1  -5    4.11    0.54
  -1  -1  -6  128.34    2.27
  -1  -1  -6  137.91    3.99
  -1   1  -6  123.93    1.90
  -1   1  -6  135.10    1.89
   1  -1   6  127.45    2.13
   1   1   6  126.23    4.74
  -1   1  -6  121.88    2.91
   1   1   6  123.24    4.18
  -1  -1  -6  122.88    2.53
  -1   1  -7   15.34    1.18
   1   1   7   14.59    1.97
  -1  -1  -7   14.24    0.90
   1  -1   7   14.50    1.70
  -1  -1  -7   14.30    1.47
  -1  -1  -7   14.81    0.79
   1   1   8   25.89    2.41
  -1  -1  -8   22.03    1.11
  -1  -1  -8   24.97    2.02
  -1  -1  -8   25.93    1.08
  -1   1  -8   26.03    1.74
   1   1   8   27.86    2.84
   1  -1   9   29.90    3.00
   1   1   9   29.63    3.16
  -1   1  -9   32.45    2.12
   1   1   9   30.41    2.92
  -1  -1 -10   38.42    2.83
   1   1  10   44.44    3.75
   1   1  10   39.85    3.86
   1  -1  10   45.66    4.16
  -1  -1 -11   54.89    3.52
   1  -1  11   63.31    5.26
  -1  -1 -11   62.25    3.03
  -1   1 -12  101.05    4.27
  -1  -1 -12   89.71    3.72
  -1  -1 -12   94.99    4.96
  -1  -1 -12   99.72    4.37
  -1  -1 -12   90.01    3.58
  -1  -1 -12   94.39    3.94
   1   1  12   92.24    6.45
  -1   1 -12   98.84    3.71
  -1  -1 -13   84.28    4.00
  -1  -1 -13   90.44    3.81
  -1   1 -13   95.21    4.24
  -1  -1 -13   82.86    3.53
  -1   1 -13   87.37    3.66
  -1   1 -14   32.82    2.38
  -1  -1 -14   30.84    2.62
  -1  -1 -14   30.28    2.28
  -1  -1 -14   32.53    2.70
  -1  -1 -14   30.04    2.25
  -1   1 -14   28.45    2.43
  -1  -1 -15  345.93    8.25
  -1   1 -15  335.80    7.18
  -1  -1 -15  367.83    7.10
  -1  -1 -15  374.46    8.20
  -1   1 -15  369.37    8.07
  -1   1 -16   51.80    2.94
  -1   1 -16   50.83    2.71
  -1  -1 -16   48.99    2.89
  -1  -1 -16   48.94    3.07
  -1  -1 -16   56.31    2.54
  -1  -1 -17   33.95    2.06
  -1   1 -17   34.27    2.15
  -1   1 -17   32.69    1.97
  -1  -1 -18   55.74    2.53
  -1  -1 -19    3.87    0.61
   1  -2 -18   17.27    1.40
   1  -2 -18   17.53    1.11
   1  -2 -17   46.10    2.63
   1  -2 -17   49.75    2.34
   1  -2 -16   13.51    1.60
   1  -2 -16   15.29    1.60
   1   2 -15  770.20    9.41
   1  -2 -15  738.59   10.96
   1  -2 -15  758.11   11.20
   1   2 -14   28.60    2.05
   1   2 -14   25.49    1.63
   1  -2 -14   25.23    2.39
   1  -2 -14   32.38    2.60
   1  -2 -13  266.27    7.12
   1   2 -13  254.30    4.96
   1  -2 -13  238.04    6.83
   1   2 -13  284.94    6.30
   1  -2 -12   39.38    2.69
   1   2 -12   36.18    2.34
  -1   2  12   41.98    4.37
  -1  -2  12   34.78    4.82
   1  -2 -12   34.34    2.56
   1  -2 -12   28.14    2.44
   1   2 -12   31.99    1.77
  -1   2  12   36.17    3.38
  -1   2  11  128.87    6.02
   1  -2 -11  126.42    3.90
   1   2 -11  117.46    3.21
   1  -2 -11  123.05    4.33
   1  -2 -11  122.26    4.35
   1  -2 -10   52.65    3.68
  -1   2  10   57.46    3.81
   1  -2 -10   55.86    2.69
   1  -2  -9  796.13    9.79
   1  -2  -9  831.01   13.31
   1  -2  -8  429.63    5.86
  -1   2   8  441.79    8.62
   1  -2  -8  420.05    8.67
   1  -2  -8  425.48    7.50
   1  -2  -7 1580.16   15.94
  -1   2   7 1606.06   14.82
   1  -2  -6  197.16    4.95
   1  -2  -6  205.93    4.24
  -1  -2   5 1294.55    7.09
   1   2  -5 1054.46    5.22
  -1   2   5 1192.24   10.35
  -1  -2   5 1231.79    8.26
   1  -2  -5 1057.84   11.67
   1  -2  -5 1200.89   12.05
   1  -2  -4  150.69    3.96
   1  -2  -4  147.97    3.42
  -1  -2   4  156.05    3.03
   1  -2  -3 4084.55   18.29
   1  -2  -3 4221.62   17.96
  -1  -2   2  897.10    7.27
   1  -2  -2  873.69    7.48
  -1   2   2  887.01    7.83
   1  -2  -2  882.40    8.12
   1  -2  -1  892.52    8.23
   1  -2  -1  881.51    6.66
  -1  -2   1  902.79    7.37
  -1   2   0  258.41    4.05
   1  -2   0  256.49    2.96
  -1  -2   0  269.22    4.11
   1  -2   0  263.60    4.49
  -1  -2  -1 1057.12    8.59
   1  -2   1 1078.65    9.31
   1   2   2  640.19    6.64
  -1  -2  -2    0.05    0.23
  -1  -2  -3  442.04    6.09
  -1  -2  -3 4172.39   17.09
   1  -2   3 3925.14   18.58
  -1  -2  -4   -0.02    0.37
   1   2   4    3.50    0.90
   1   2   5 3763.58   23.05
   1  -2   5 3796.87   20.28
  -1  -2  -6  304.62    5.06
   1  -2   6  287.26    5.61
  -1  -2  -6  319.04    4.96
   1   2   6  306.11    7.32
  -1  -2  -6  329.90    6.78
  -1  -2  -7 1086.98    9.69
  -1  -2  -7 1225.15   14.22
  -1  -2  -7 1265.49    9.62
   1  -2   7 1004.98    7.68
  -1   2  -7 1110.86    5.80
   1   2   7 1112.60   15.42
   1   2   8  485.60   11.16
  -1  -2  -8  464.63    6.66
  -1  -2  -8  500.29    5.52
   1  -2   8  512.94   11.51
  -1  -2  -8  522.45    9.70
  -1  -2  -9  737.49   12.44
   1   2   9  665.65   14.24
  -1  -2  -9  610.09    5.74
  -1  -2  -9  606.32    7.38
   1  -2   9  694.95   14.77
   1  -2  10   90.25    6.15
  -1  -2 -10   86.59    4.63
  -1  -2 -11   86.69    3.85
  -1   2 -11   89.76    3.25
  -1  -2 -11   82.80    3.76
  -1  -2 -11   93.55    4.33
   1  -2  11   97.32    7.09
  -1   2 -11   84.89    2.79
   1   2  11   84.91    5.86
  -1  -2 -12   59.09    3.14
   1   2  12   55.92    5.19
  -1   2 -12   71.17    3.66
  -1   2 -12   56.29    2.46
   1  -2  12   72.21    6.96
  -1  -2 -12   57.49    4.04
  -1  -2 -12   58.19    3.25
  -1  -2 -12   67.83    3.82
  -1  -2 -12   64.51    3.54
  -1   2 -12   63.24    2.88
  -1   2 -13  213.76    6.44
  -1   2 -13  179.38    5.01
  -1  -2 -13  186.06    5.77
  -1  -2 -13  172.96    5.44
  -1   2 -13  168.21    4.31
  -1  -2 -13  202.97    6.52
  -1  -2 -13  185.11    6.22
  -1  -2 -14  139.78    4.98
  -1   2 -14  139.48    4.47
  -1  -2 -14  138.06    5.61
  -1   2 -14  160.78    5.47
  -1  -2 -14  140.52    4.91
  -1  -2 -14  159.17    5.69
  -1  -2 -15  236.97    6.62
  -1  -2 -15  228.75    6.99
  -1  -2 -15  218.62    5.75
  -1   2 -15  234.83    6.22
  -1  -2 -15  227.93    6.04
  -1   2 -15  212.54    5.32
  -1   2 -16   98.05    3.83
  -1  -2 -16   90.87    3.77
  -1  -2 -16   88.13    3.18
  -1   2 -16   84.07    3.05
  -1  -2 -16   92.68    4.36
  -1  -2 -16   92.61    3.51
  -1  -2 -17   25.10    2.14
  -1  -2 -17   24.30    1.59
  -1   2 -17   22.64    1.69
  -1   2 -18   12.48    0.95
  -1  -2 -18   22.51    1.77
  -1  -2 -19   41.07    1.66
   1  -3 -18   12.67    0.99
   1  -3 -17    3.08    0.96
   1  -3 -16   56.01    3.29
   1  -3 -16   52.79    2.82
   1  -3 -16   54.54    2.87
   1   3 -15    5.23    0.87
   1  -3 -15    6.34    1.42
   1   3 -15    8.60    1.17
   1  -3 -15    6.08    1.56
   1  -3 -15    6.64    1.34
   1   3 -14   21.82    1.63
   1   3 -14   21.93    1.88
   1  -3 -14   21.82    2.45
   1  -3 -14   20.99    2.16
   1  -3 -13   48.14    3.20
   1  -3 -13   39.14    3.13
   1   3 -13   46.63    2.74
   1  -3 -13   45.36    3.27
   1   3 -13   41.65    2.21
   1  -3 -12    2.12    1.13
   1   3 -12    1.99    0.73
   1  -3 -12    3.15    1.31
   1  -3 -12    2.42    1.06
   1   3 -12    2.73    0.69
   1  -3 -11   43.89    2.87
   1  -3 -11   40.33    3.00
   1   3 -11   44.42    2.06
  -1   3  11   45.71    4.33
   1  -3 -11   46.82    3.01
  -1   3  11   44.97    3.87
   1  -3 -11   46.44    3.90
   1   3 -11   42.04    2.13
  -1   3  10   26.10    2.77
   1  -3 -10   23.50    2.07
   1   3 -10   18.65    1.40
   1  -3 -10   20.73    2.07
   1  -3 -10   21.37    1.91
  -1   3  10   24.88    2.99
   1  -3 -10   19.99    1.81
   1  -3 -10   22.04    2.58
   1  -3  -9   51.78    3.64
  -1   3   9   57.83    3.75
   1  -3  -9   57.98    3.13
   1  -3  -8   84.36    4.29
  -1   3   8   81.84    4.08
  -1   3   8   89.21    4.66
   1  -3  -8   82.61    3.22
   1  -3  -8   76.97    3.60
  -1  -3   7    2.88    0.48
   1  -3  -7    3.31    0.80
  -1   3   7    3.35    1.02
   1  -3  -7    3.92    0.93
  -1   3   7    3.13    0.97
   1  -3  -7    6.24    1.24
   1  -3  -6   17.36    1.56
  -1   3   6   18.68    1.89
   1  -3  -6   17.99    1.87
  -1  -3   5    0.58    0.49
   1  -3  -5    1.03    0.63
  -1   3   5    0.55    0.62
  -1   3   5    0.43    0.52
   1  -3  -4  183.51    4.65
   1  -3  -4  191.44    4.83
  -1   3   4  186.22    4.72
  -1  -3   4  180.06    4.33
   1  -3  -3  436.41    7.07
  -1   3   3  427.26    6.75
   1  -3  -2 1064.81    9.44
  -1  -3   2 1008.89   10.10
   1  -3  -2 1022.55    6.13
   1  -3  -2 1046.28   11.15
  -1   3   2 1099.80   10.39
  -1  -3   1  190.48    4.38
  -1   3   1  175.45    3.83
   1   3   0   48.69    1.33
  -1   3   0   46.20    1.94
  -1  -3   0   45.77    2.19
   1  -3   0   46.45    2.39
   1  -3   0   46.27    1.56
   1   3   1 1472.11    8.69
   1  -3   1 1517.73    6.99
  -1  -3  -2  184.62    4.48
   1  -3   2  184.96    4.83
   1   3   2  184.23    4.36
  -1  -3  -3  259.22    5.37
   1   3   3  262.94    5.57
  -1  -3  -3  273.16    5.45
  -1  -3  -4 1158.17   11.42
   1  -3   4 1194.54   12.85
  -1  -3  -4 1172.32   12.18
  -1  -3  -5    3.57    0.95
  -1  -3  -5    1.84    0.65
   1   3   5    2.20    0.92
   1   3   6  139.75    5.46
  -1  -3  -6  139.86    4.12
  -1  -3  -6  142.89    5.02
  -1  -3  -7  327.00    8.37
  -1  -3  -7  333.26    6.59
   1   3   7  324.85    9.01
   1   3   8   49.42    3.87
  -1  -3  -8   49.47    2.31
  -1  -3  -8   48.62    3.31
  -1  -3  -8   47.41    2.57
   1  -3   9  273.13   10.06
  -1  -3  -9  239.16    5.81
  -1  -3  -9  269.79    8.06
   1   3   9  265.77    9.44
  -1  -3 -10  104.85    4.79
  -1  -3 -10   98.04    5.27
   1  -3  10  102.46    6.85
  -1  -3 -10  102.54    4.31
  -1  -3 -11   72.11    4.72
  -1  -3 -11   70.30    4.03
   1  -3  11   76.59    6.72
  -1   3 -11   63.42    2.64
  -1  -3 -11   71.17    3.86
  -1  -3 -11   67.57    3.44
   1   3  11   67.33    5.42
  -1  -3 -12   59.37    3.80
  -1   3 -12   59.35    2.67
  -1  -3 -12   58.43    3.61
  -1  -3 -12   57.60    3.71
  -1  -3 -12   48.85    3.12
  -1  -3 -13  313.52    8.64
  -1   3 -13  290.58    5.88
  -1  -3 -13  327.76    8.47
  -1  -3 -13  302.78    7.63
  -1  -3 -13  319.37    8.10
  -1   3 -14  127.58    4.87
  -1  -3 -14  118.95    5.06
  -1  -3 -14  115.53    4.75
  -1  -3 -14  119.41    4.81
  -1  -3 -14  119.21    5.46
  -1  -3 -15    2.50    1.09
  -1  -3 -15    2.11    1.28
  -1   3 -15    1.95    1.08
  -1   3 -16   87.22    3.37
  -1  -3 -16   92.62    3.61
  -1  -3 -16   85.88    3.35
  -1  -3 -16   92.55    4.34
  -1  -3 -17    1.47    0.69
  -1  -3 -17    1.36    1.00
  -1   3 -17    0.54    0.65
  -1  -3 -17    0.44    0.53
  -1  -3 -18   13.67    1.38
  -1  -3 -18   11.76    0.84
   1  -4 -17   48.31    2.22
   1  -4 -17   42.98    2.06
   1  -4 -17   47.99    2.55
   1  -4 -16   76.55    3.28
   1  -4 -16   77.39    3.70
   1  -4 -15    5.58    1.49
   1   4 -15    5.72    0.89
   1   4 -15    5.11    0.93
   1  -4 -15    5.12    1.25
   1  -4 -15    7.44    1.45
   1   4 -14  104.63    3.35
   1  -4 -14  108.27    4.89
   1  -4 -14  112.58    5.24
   1   4 -14  112.91    3.85
   1  -4 -14  109.87    4.72
   1  -4 -13  140.06    5.80
   1  -4 -13  148.26    5.65
   1   4 -12  564.20    7.60
   1  -4 -12  589.61   11.91
   1  -4 -12  582.94   10.91
   1  -4 -11  308.06    8.41
   1  -4 -11  329.49    7.99
   1  -4 -11  323.17    8.59
   1   4 -11  328.15    6.07
   1   4 -11  332.47    5.92
   1   4 -10  659.22    8.33
   1  -4 -10  625.93   11.49
   1   4 -10  678.36    8.40
   1  -4 -10  642.05   11.22
   1  -4 -10  622.39   11.39
  -1   4  10  679.41   15.98
   1  -4 -10  658.30   10.62
   1  -4 -10  617.40   13.92
  -1   4  10  628.83   14.20
  -1   4   9  164.02    7.40
   1  -4  -9  153.59    5.43
   1  -4  -9  150.11    5.43
   1   4  -9  169.00    4.14
   1  -4  -9  152.34    5.74
  -1   4   9  160.75    6.94
   1  -4  -9  157.28    4.98
   1   4  -9  158.48    3.91
   1  -4  -9  154.04    6.54
  -1   4   8  693.78   13.89
   1   4  -8  693.08    7.74
   1  -4  -8  691.58    9.91
   1  -4  -8  698.00   10.97
   1  -4  -8  676.48   10.70
   1  -4  -8  673.95   12.92
   1  -4  -8  660.20   11.69
  -1   4   8  655.76   12.99
   1  -4  -7  239.31    7.24
  -1   4   7  239.52    7.57
  -1   4   7  227.90    7.07
   1  -4  -7  228.80    6.52
   1  -4  -7  227.51    7.00
   1  -4  -6 1807.55   18.22
  -1   4   6 1843.04   19.22
   1  -4  -5  581.04   10.13
  -1  -4   5  570.38   10.13
  -1   4   5  599.81   10.37
   1  -4  -4 2294.47   19.64
  -1   4   4 2254.38   18.71
  -1  -4   4 2244.76   19.45
   1  -4  -3   12.20    1.36
  -1  -4   3   10.11    1.38
   1  -4  -3   12.35    1.55
   1  -4  -2 1341.22   12.08
   1  -4  -2 1370.72    8.83
  -1  -4   2 1385.51   14.83
   1  -4  -2 1378.30   15.02
   1  -4  -1  848.44   11.97
  -1  -4   1  830.23   11.42
   1  -4  -1  840.70    8.58
  -1   4   1  820.61    9.32
  -1   4   0 2757.60   16.76
   1  -4   0 2618.69   20.72
   1  -4   0 2653.10   13.48
   1   4   0 2714.95   10.89
   1  -4   1  906.76    6.53
  -1  -4  -1  837.93   11.44
   1   4   1  883.61    7.91
  -1  -4  -1  845.42    9.71
   1  -4   1  885.67   12.36
   1   4   2 1390.08   10.81
  -1  -4  -2 1371.89   14.75
  -1  -4  -3  492.26    8.91
  -1  -4  -3  505.14    8.50
   1   4   3  483.51    9.01
   1  -4   4  362.79    8.21
  -1  -4  -4  352.55    7.60
   1   4   4  340.27    7.91
  -1  -4  -5  265.31    7.07
  -1  -4  -5  253.70    6.64
   1   4   5  249.19    7.38
  -1  -4  -6  282.62    7.85
   1  -4   6  297.46    8.56
  -1  -4  -7  109.55    5.14
  -1  -4  -7  113.35    4.63
   1   4   7  107.05    5.68
   1  -4   7  127.02    5.98
  -1  -4  -7  107.92    4.41
  -1  -4  -8  538.64   10.08
   1   4   8  551.45   13.63
  -1  -4  -8  562.30    9.33
  -1  -4  -8  558.93   12.08
  -1   4  -8  585.62    7.30
  -1  -4  -9  127.10    5.50
  -1  -4  -9  104.24    4.53
  -1  -4  -9  117.36    4.80
   1  -4   9  127.22    7.37
  -1  -4  -9  121.50    5.00
   1   4   9  115.67    6.80
  -1   4  -9  120.52    3.43
  -1  -4  -9  126.58    6.16
  -1  -4 -10  575.95   11.31
  -1  -4 -10  562.31   13.52
   1  -4  10  578.61   17.06
  -1  -4 -10  540.46   10.64
  -1   4 -10  581.30    7.88
  -1  -4 -11  347.29    9.16
  -1  -4 -11  314.30    8.41
  -1   4 -11  322.22    6.19
  -1  -4 -11  358.82    9.49
  -1  -4 -11  317.32    7.97
  -1  -4 -12  360.62    9.13
  -1  -4 -12  350.98    9.61
  -1   4 -12  338.88    6.38
  -1  -4 -12  340.68    8.51
  -1  -4 -13  136.03    5.38
  -1  -4 -13  127.85    5.48
  -1  -4 -13  132.04    6.00
  -1  -4 -14   75.32    3.95
  -1  -4 -14   70.05    4.37
  -1   4 -15   22.94    1.96
  -1  -4 -15   23.31    2.18
  -1  -4 -15   23.99    2.21
  -1  -4 -15   24.02    2.58
  -1  -4 -16   64.81    3.59
  -1   4 -16   55.92    2.49
  -1  -4 -16   56.39    2.76
  -1  -4 -16   59.14    2.91
  -1   4 -17   35.24    1.64
  -1  -4 -17   29.25    1.54
  -1  -4 -18   71.70    2.58
   1  -5 -17   38.11    1.73
   1  -5 -16   12.43    1.42
   1  -5 -16   14.46    1.44
   1  -5 -16   14.55    1.67
   1  -5 -15   29.91    2.32
   1  -5 -15   25.95    2.57
   1   5 -15   28.69    1.63
   1   5 -15   26.61    1.54
   1  -5 -15   27.24    2.27
   1  -5 -14    6.29    1.43
   1  -5 -14    6.10    1.46
   1   5 -14    5.51    1.07
   1  -5 -14    5.52    1.57
   1   5 -13    0.91    0.71
   1  -5 -13    1.70    1.31
   1  -5 -13    5.15    1.40
   1  -5 -13    1.58    1.33
   1  -5 -12    1.64    1.17
   1  -5 -12    4.38    1.64
   1   5 -12    1.47    0.81
   1  -5 -11  159.06    6.45
   1   5 -11  161.34    4.52
   1  -5 -11  168.38    6.90
   1  -5 -11  177.07    6.09
   1  -5 -10    1.11    1.47
   1  -5 -10    3.51    1.27
   1   5 -10    2.07    0.94
   1  -5 -10    1.67    1.42
   1  -5  -9   36.32    3.16
   1   5  -9   29.42    1.95
   1  -5  -9   30.81    2.45
   1  -5  -9   28.20    2.86
   1  -5  -9   29.38    2.74
   1  -5  -8   28.93    2.66
  -1   5   8   32.73    2.20
   1   5  -8   30.18    1.86
   1  -5  -8   30.65    2.64
   1  -5  -8   26.32    2.81
   1  -5  -8   27.47    2.02
   1  -5  -8   27.91    2.72
   1   5  -8   33.31    2.14
   1   5  -7   39.29    2.05
   1  -5  -7   34.19    2.63
   1  -5  -7   32.69    2.29
   1  -5  -7   33.30    3.17
   1  -5  -7   36.20    2.31
  -1   5   7   39.05    3.64
   1  -5  -7   33.48    3.00
   1   5  -6   31.75    2.00
   1  -5  -6   29.50    2.70
   1  -5  -6   30.16    2.79
  -1  -5   6   29.74    2.91
   1   5  -6   29.38    1.68
  -1   5   6   36.16    3.36
  -1  -5   5    0.88    0.86
   1  -5  -5    1.86    0.92
  -1   5   5    1.01    0.97
   1  -5  -5    1.48    0.97
   1  -5  -4   21.41    2.31
  -1  -5   4   20.28    2.38
  -1   5   4   19.83    2.05
   1  -5  -4   21.86    2.09
  -1  -5   3   45.95    3.42
   1  -5  -3   48.58    2.85
  -1   5   3   48.11    2.90
   1  -5  -3   44.73    3.29
  -1  -5   2  379.78    6.12
   1  -5  -2  404.25    7.36
   1  -5  -2  385.35    5.46
   1  -5  -2  403.31    9.60
   1  -5  -1    0.74    0.76
  -1  -5   1    0.72    0.50
   1  -5  -1    1.29    0.55
  -1   5   1    1.12    0.65
  -1  -5   1    0.77    0.82
   1  -5   0    9.42    1.61
  -1  -5   0    9.84    1.66
   1  -5   0   11.05    1.01
  -1  -5   0   12.80    1.38
  -1   5   0   13.86    1.32
  -1  -5  -1  217.87    5.65
  -1  -5  -1  220.65    7.24
   1  -5   1  223.68    7.29
   1   5   1  239.98    4.36
  -1  -5  -2   14.97    2.02
  -1  -5  -2   17.62    1.81
   1   5   2   17.88    1.44
   1   5   3  156.89    4.78
   1  -5   3  161.04    6.23
  -1  -5  -3  144.96    5.88
  -1  -5  -3  150.05    5.27
   1  -5   4  256.99    8.23
   1   5   4  267.06    6.76
  -1  -5  -4  256.20    7.33
   1  -5   5   63.65    4.40
   1   5   5   59.68    3.52
  -1  -5  -5   54.66    3.65
   1  -5   6    0.51    0.90
   1   5   6    0.60    0.75
  -1   5  -6    0.48    0.51
  -1  -5  -6    0.48    0.75
  -1  -5  -7   39.93    3.20
  -1  -5  -7   40.72    3.46
  -1  -5  -7   39.92    2.46
   1   5   7   48.04    3.76
  -1  -5  -7   46.31    3.43
   1   5   7   40.94    4.10
  -1  -5  -7   41.94    2.72
  -1   5  -7   41.66    2.08
  -1  -5  -7   41.27    3.26
   1  -5   8  105.10    6.72
  -1  -5  -8  100.10    4.67
  -1  -5  -8  107.92    5.85
   1   5   8  117.72    6.41
  -1  -5  -8  105.21    5.17
  -1  -5  -8   98.72    5.10
   1   5   8  107.88    6.83
  -1   5  -8  106.43    3.41
  -1  -5  -8  101.58    3.92
  -1  -5  -8  100.74    4.18
  -1  -5  -9   79.76    3.71
  -1  -5  -9   77.36    4.64
  -1  -5  -9   76.77    3.41
  -1  -5  -9   80.04    4.40
   1   5   9   94.66    6.23
  -1  -5  -9   83.54    4.71
  -1   5  -9   84.37    3.18
  -1   5 -10   18.73    1.67
  -1  -5 -10   18.95    2.42
  -1  -5 -11   68.74    4.54
  -1  -5 -11   68.87    4.29
  -1   5 -11   64.16    2.99
  -1  -5 -11   71.96    4.03
  -1  -5 -12    7.70    1.71
  -1  -5 -12    7.82    1.88
  -1   5 -12    6.74    1.18
  -1  -5 -12    6.18    1.76
  -1  -5 -13    1.12    1.38
  -1  -5 -13    1.02    1.36
  -1  -5 -13    0.57    1.00
  -1   5 -13    0.68    0.79
  -1  -5 -14   20.55    2.12
  -1  -5 -14   19.40    2.19
  -1   5 -14   20.35    1.90
  -1  -5 -14   24.84    2.73
  -1  -5 -15  114.41    4.25
  -1  -5 -15  106.04    4.17
  -1  -5 -15  120.87    4.97
  -1   5 -16   19.36    1.34
  -1  -5 -16   22.94    2.08
  -1  -5 -16   20.84    1.66
  -1  -5 -16   22.01    1.72
  -1  -5 -17   52.31    2.40
  -1  -5 -17   47.59    1.89
   1  -6 -16   97.75    2.75
   1  -6 -16   80.57    2.59
   1  -6 -15   41.79    2.40
   1  -6 -15   45.07    2.30
   1   6 -14  213.21    4.32
   1   6 -14  226.53    4.36
   1  -6 -14  222.92    5.60
   1  -6 -14  226.14    6.22
   1  -6 -13    0.34    0.84
   1  -6 -13    0.58    1.10
   1  -6 -13    0.18    1.19
   1   6 -13    0.75    0.70
   1   6 -12   19.23    1.65
   1  -6 -12   24.74    2.88
   1  -6 -12   20.28    2.16
   1  -6 -12   19.23    2.39
   1  -6 -11    7.60    1.95
   1   6 -11    6.35    1.17
   1  -6 -11    7.24    1.77
   1  -6 -11    8.18    1.52
   1  -6 -10  320.06    9.80
   1   6 -10  306.10    6.47
   1  -6 -10  311.49    7.80
   1  -6 -10  309.84    8.97
   1  -6  -9   13.11    2.14
  -1   6   9   14.48    1.73
   1  -6  -9   13.82    2.54
   1  -6  -9   15.66    1.73
   1   6  -9   14.43    1.56
   1   6  -8  768.64    9.81
   1  -6  -8  744.90   13.03
  -1   6   8  763.96   11.16
   1  -6  -8  733.19   10.98
   1  -6  -8  720.30   11.21
   1  -6  -7    4.79    1.17
   1  -6  -7    6.40    1.26
   1   6  -7    4.08    1.01
  -1   6   7    3.85    1.04
  -1   6   6  494.73    8.32
   1  -6  -6  428.97   10.66
   1  -6  -6  458.43    8.35
   1  -6  -6  448.80    8.66
   1  -6  -6  479.77   11.52
  -1   6   6  495.53   12.66
   1   6  -6  478.98    7.25
   1  -6  -6  412.59    9.15
   1  -6  -5   18.80    2.19
   1  -6  -5   20.23    1.95
   1  -6  -5   20.44    2.62
   1  -6  -5   20.27    2.11
  -1   6   5   21.58    2.64
   1   6  -5   21.45    1.35
   1  -6  -5   19.33    1.75
   1   6  -5   21.51    1.61
  -1   6   4  973.00   15.34
   1  -6  -4  839.74   13.17
  -1  -6   4  947.99   13.91
   1  -6  -4  854.85   16.22
  -1  -6   4  911.71   14.83
   1  -6  -4  975.15   13.71
   1   6  -4  976.09    9.69
  -1  -6   4  887.57   17.80
   1  -6  -4  895.49   12.33
   1  -6  -4  896.75   12.32
   1  -6  -3  144.69    6.74
  -1  -6   3  153.32    5.99
  -1  -6   3  154.94    5.50
   1  -6  -3  154.31    5.47
  -1  -6   3  154.30    7.42
   1  -6  -3  143.98    4.94
   1  -6  -3  150.79    5.26
   1  -6  -2 1030.70   12.99
   1  -6  -2 1071.69   13.05
  -1  -6   2 1022.53   18.64
   1  -6  -2 1029.59   17.78
   1  -6  -1   27.97    2.28
  -1  -6   1   28.03    3.18
   1  -6  -1   29.91    2.50
   1  -6  -1   30.34    3.17
  -1   6   1   33.30    2.32
  -1  -6   0  334.24    7.83
   1  -6   0  310.22    7.20
   1  -6   0  322.32    7.41
  -1  -6   0  326.55   10.43
   1  -6   0  340.92    8.22
  -1  -6   0  347.94    7.75
  -1  -6   0  347.43    8.70
  -1   6  -1    7.92    0.98
  -1  -6  -1    8.32    1.42
  -1  -6  -1   11.01    1.60
   1  -6   1    9.14    1.45
  -1  -6  -1    8.79    1.61
  -1  -6  -1    7.91    1.86
  -1   6  -2  937.77    9.31
   1  -6   2  911.37   12.78
  -1  -6  -2  938.65   14.20
  -1  -6  -2  935.73   14.06
  -1  -6  -2  923.51   12.65
   1  -6   3    3.61    1.18
  -1  -6  -3    3.10    1.09
  -1   6  -3    4.30    0.77
  -1  -6  -3    3.90    1.06
  -1  -6  -3    4.93    1.54
   1  -6   3    3.52    1.32
  -1  -6  -3    4.11    1.25
  -1  -6  -4 1207.73   14.59
  -1  -6  -4 1145.86   19.58
   1  -6   4 1286.64   21.66
   1  -6   4 1238.43   15.73
  -1  -6  -4 1163.69   17.33
  -1   6  -4 1265.25   11.00
  -1   6  -4 1234.78   10.64
  -1  -6  -4 1259.76   16.27
  -1   6  -5   14.05    1.32
   1  -6   5   16.73    2.09
  -1   6  -5   14.11    1.24
  -1  -6  -5   11.18    1.93
  -1  -6  -5   16.47    2.03
   1  -6   5   10.91    2.21
  -1  -6  -5   14.38    1.78
   1   6   5   16.51    2.22
  -1  -6  -5   12.88    2.14
  -1  -6  -5    9.83    2.01
  -1  -6  -6  253.87    9.27
  -1  -6  -6  266.24    8.77
  -1  -6  -6  248.89    8.81
  -1  -6  -7   56.91    3.55
  -1  -6  -7   54.84    3.83
  -1  -6  -7   61.08    4.41
  -1   6  -7   60.31    2.70
  -1  -6  -7   58.33    3.29
  -1  -6  -8  470.83   12.25
  -1  -6  -8  435.86   10.62
  -1  -6  -8  457.27    8.94
  -1   6  -8  465.42    7.56
  -1  -6  -9   92.47    4.38
  -1  -6  -9   97.02    4.11
  -1  -6  -9   94.09    5.64
  -1   6  -9  102.51    3.68
  -1  -6  -9  102.47    4.66
  -1  -6  -9   98.47    5.19
   1   6  10  441.68    8.20
  -1  -6 -10  490.24   12.62
  -1   6 -10  513.42    8.16
  -1  -6 -10  517.38   11.85
  -1  -6 -10  447.99    8.45
  -1  -6 -10  513.68   10.48
  -1   6 -11   12.04    1.49
  -1  -6 -11    8.03    2.11
  -1  -6 -11   12.98    2.27
  -1  -6 -11    7.81    1.55
  -1   6 -12   44.93    2.46
  -1  -6 -12   48.58    3.67
  -1  -6 -12   49.56    3.30
  -1  -6 -13    0.29    1.17
  -1  -6 -13    1.97    1.32
  -1  -6 -13    3.30    1.17
  -1   6 -14  200.20    4.74
  -1  -6 -14  213.48    6.06
  -1  -6 -14  217.97    6.73
  -1  -6 -14  211.84    5.80
  -1  -6 -15   10.59    1.54
  -1  -6 -15    8.80    1.35
  -1  -6 -15   10.03    1.36
  -1  -6 -16  132.71    3.27
   1  -7 -15    0.52    0.51
   1  -7 -14   23.23    1.81
   1  -7 -14   23.37    1.56
   1   7 -13   25.79    1.60
   1  -7 -13   27.37    2.27
   1  -7 -13   29.05    2.00
   1   7 -12    0.39    0.69
   1  -7 -12    0.14    1.01
   1  -7 -11    6.07    1.31
   1   7 -11    6.08    1.08
   1  -7 -11    8.73    1.70
  -1   7  10   40.30    2.57
   1  -7 -10   46.90    3.42
   1  -7 -10   38.23    2.29
   1   7 -10   40.96    2.34
   1  -7 -10   40.80    2.84
   1  -7  -9    0.54    0.76
  -1   7   9    0.43    0.84
   1   7  -9    0.71    0.87
   1  -7  -9    0.63    0.85
   1  -7  -9    0.68    1.18
   1  -7  -8  145.48    5.16
   1  -7  -8  147.74    5.16
   1   7  -8  147.06    4.51
  -1   7   8  157.90    5.28
   1  -7  -7   38.07    2.71
  -1   7   7   39.29    2.75
   1   7  -7   37.45    2.32
   1  -7  -7   36.70    3.11
   1  -7  -7   40.97    3.01
   1  -7  -6   14.84    2.08
   1  -7  -6   15.75    1.77
   1   7  -6   14.58    1.51
  -1   7   5   27.15    2.20
   1  -7  -5   26.78    2.52
   1   7  -5   24.61    1.59
   1  -7  -5   24.21    2.47
   1   7  -5   26.81    1.91
  -1  -7   5   25.29    2.76
   1  -7  -5   28.60    2.20
   1  -7  -4  110.82    5.01
  -1  -7   4  112.20    5.59
  -1   7   4  128.18    4.45
   1  -7  -4  111.47    4.75
   1   7  -4  119.07    3.77
   1   7  -4  111.24    3.42
   1  -7  -3    2.74    1.18
   1  -7  -3    0.37    0.84
   1   7  -3    0.51    0.62
  -1  -7   3    0.60    1.22
  -1  -7   3    0.35    0.92
  -1  -7   2   20.68    2.73
  -1  -7   2   16.63    2.28
   1   7  -2   19.07    1.52
   1  -7  -2   19.99    2.41
  -1   7   2   19.53    1.81
  -1  -7   1    7.82    2.16
  -1   7   1    8.79    1.28
   1  -7  -1    9.25    1.73
  -1  -7   0    1.98    1.33
  -1  -7   0    1.13    1.13
  -1   7   0    1.32    0.69
  -1  -7   0    0.94    1.17
   1  -7   0    1.15    1.08
   1  -7   0    0.97    0.93
  -1  -7  -1   54.70    3.76
   1  -7   1   54.66    3.64
  -1  -7  -1   57.30    4.22
  -1   7  -1   54.45    2.63
   1  -7   2   64.85    3.95
  -1  -7  -2   74.31    4.86
  -1  -7  -2   68.91    4.25
  -1   7  -3    0.52    0.64
   1  -7   3    0.63    0.98
  -1   7  -3    0.59    0.59
  -1  -7  -3    2.26    1.39
  -1  -7  -3    1.42    1.09
  -1  -7  -4   28.62    2.80
  -1   7  -4   25.63    1.76
   1  -7   4   29.43    2.90
  -1   7  -4   35.70    2.08
  -1  -7  -4   32.34    3.24
  -1   7  -5    1.09    0.57
   1  -7   5    0.08    0.94
  -1  -7  -5    0.43    1.07
  -1  -7  -5    1.05    1.24
  -1  -7  -5    0.30    1.13
  -1   7  -5    0.51    0.65
  -1   7  -6    0.24    0.45
  -1  -7  -6    2.07    1.10
  -1   7  -6    0.64    0.72
  -1  -7  -6    2.81    1.42
  -1  -7  -7   25.04    3.34
  -1  -7  -7   28.17    2.99
  -1  -7  -7   28.42    2.56
  -1  -7  -8   69.69    5.26
  -1   7  -8   72.33    3.14
  -1  -7  -8   77.48    4.07
  -1  -7  -8   77.18    4.73
  -1  -7  -8   73.30    3.97
  -1   7  -9   61.72    2.94
  -1  -7  -9   64.46    3.52
  -1  -7  -9   65.10    3.78
   1   7   9   61.34    3.21
  -1  -7  -9   65.08    5.01
  -1  -7  -9   64.25    4.25
   1   7  10   39.84    2.49
  -1   7 -10   41.81    2.41
  -1  -7 -10   33.70    3.51
  -1  -7 -10   38.39    2.50
  -1  -7 -10   43.79    3.49
  -1  -7 -11   44.02    3.44
  -1  -7 -11   44.34    3.71
  -1   7 -11   42.94    2.35
  -1  -7 -11   44.50    2.99
  -1  -7 -12   11.60    1.60
  -1  -7 -12   10.76    1.93
  -1  -7 -12   11.57    1.90
  -1  -7 -13  130.20    4.31
  -1  -7 -13  122.25    4.62
  -1  -7 -14   31.22    2.12
  -1   7 -14   26.38    1.47
  -1  -7 -14   29.25    1.85
  -1  -7 -15    8.54    0.86
  -1  -7 -15    7.66    0.89
   1  -8 -13    7.98    0.95
   1  -8 -12  169.07    3.70
   1  -8 -12  211.19    4.97
   1   8 -11    4.68    0.87
   1  -8 -11    4.36    0.89
   1   8 -10  124.45    3.56
   1  -8 -10  130.47    3.49
   1  -8  -9   27.43    2.07
   1   8  -9   24.83    1.77
   1  -8  -9   29.20    2.53
   1  -8  -9   25.41    1.97
  -1   8   9   27.78    2.11
   1  -8  -8  106.74    4.25
   1  -8  -8  105.46    4.00
   1  -8  -8  105.49    4.70
  -1   8   8  106.64    4.17
   1  -8  -7    1.07    1.13
   1   8  -7    1.23    0.84
  -1   8   7    1.70    1.01
   1   8  -6  429.81    7.28
   1  -8  -6  427.93    9.70
   1  -8  -6  447.16    9.61
  -1   8   5    4.28    1.24
   1   8  -5    5.79    0.90
   1  -8  -5    3.88    1.42
   1  -8  -5    4.35    1.43
  -1  -8   5    4.66    1.57
   1   8  -5    5.81    1.12
  -1  -8   4  176.93    7.42
   1   8  -4  176.24    4.62
   1  -8  -4  173.84    5.91
   1  -8  -4  186.99    6.98
   1   8  -4  153.74    4.19
  -1   8   4  205.81    6.01
   1   8  -3  143.95    4.22
  -1  -8   3  159.39    7.10
   1   8  -3  167.48    4.39
   1  -8  -3  159.88    6.63
  -1   8   3  167.44    5.45
  -1  -8   2  186.59    7.80
   1   8  -2  169.75    4.75
  -1   8   2  189.69    5.77
   1   8  -1   78.22    3.40
   1  -8  -1   78.73    4.82
  -1   8   1   77.40    3.63
   1  -8   0  736.66   14.36
  -1  -8   0  764.44   15.72
  -1   8   0  722.43   10.65
  -1  -8  -1   28.37    3.56
  -1  -8  -1   32.66    3.42
  -1   8  -1   31.27    2.29
   1  -8   1   31.62    3.18
  -1  -8  -2  205.48    8.64
  -1  -8  -2  208.46    7.03
  -1  -8  -2  194.13    7.96
   1  -8   3   65.55    4.37
  -1  -8  -3   60.76    3.98
  -1   8  -3   58.09    2.79
  -1  -8  -3   69.90    5.21
  -1  -8  -3   60.41    4.61
  -1   8  -4  119.80    3.85
  -1  -8  -4  119.52    6.19
   1  -8   4  116.77    5.81
  -1   8  -4  100.21    3.48
  -1  -8  -4  116.60    5.50
  -1  -8  -4  113.68    6.46
  -1  -8  -5  107.47    5.58
  -1  -8  -5   99.38    5.14
  -1   8  -5  105.71    3.66
  -1   8  -5   95.71    3.27
  -1   8  -6  487.90    7.83
  -1  -8  -6  507.68    9.59
   1   8   6  511.04    9.46
  -1  -8  -6  514.10   11.37
  -1  -8  -6  497.90   11.13
  -1  -8  -7   48.33    3.08
  -1   8  -7   49.85    2.55
  -1  -8  -7   49.08    3.71
   1   8   8   75.15    3.51
  -1  -8  -8   78.01    3.98
  -1  -8  -8   83.27    3.89
   1   8   9   85.74    3.58
  -1  -8  -9   85.63    3.73
  -1  -8  -9   86.64    3.84
  -1  -8  -9   82.00    4.40
   1   8  10   44.12    2.32
  -1  -8 -10   45.21    3.20
  -1  -8 -10   45.64    2.32
  -1  -8 -10   45.21    2.75
  -1  -8 -11   20.26    1.78
  -1  -8 -11   22.84    2.24
  -1  -8 -12  246.92    5.83
  -1  -8 -12  207.42    4.62
  -1  -8 -13   20.56    1.53
  -1   8 -13   16.64    1.03
   1  -9  -9    1.16    0.55
  -1   9   9    0.16    0.56
   1  -9  -9    0.72    0.64
   1  -9  -8    4.91    1.05
  -1   9   8    5.56    1.07
   1  -9  -8    5.30    1.03
   1  -9  -7    0.27    0.74
  -1   9   6    0.49    0.86
   1  -9  -6    0.40    0.91
   1  -9  -5    3.41    1.35
  -1   9   5    3.17    1.14
  -1   9   4   25.47    2.21
   1   9  -4   21.99    1.51
   1  -9  -4   22.59    2.57
   1   9  -3    9.24    1.16
   1  -9  -3    9.45    1.96
  -1  -9   3   11.36    2.25
  -1   9   3   10.21    1.58
  -1  -9   2   37.59    3.76
   1  -9  -2   36.10    3.32
  -1   9   2   35.03    2.52
   1   9  -2   30.63    2.04
   1  -9  -1   20.61    2.70
  -1   9   1   19.05    1.90
   1  -9   0    0.94    1.32
  -1   9   0    1.73    0.99
  -1  -9   0    0.55    1.43
   1   9   0    0.43    0.80
   1   9   1    9.37    1.47
  -1   9  -1    8.38    1.29
  -1  -9  -1   11.58    2.44
   1  -9   1   13.81    2.29
   1   9   2   17.92    1.94
  -1  -9  -2   18.45    2.91
   1  -9   2   19.74    2.67
   1   9   3    1.69    1.12
   1  -9   3    1.87    1.38
  -1  -9  -3    2.24    1.64
  -1   9  -3    1.14    0.70
   1  -9   4   87.93    4.95
  -1  -9  -4   74.49    4.78
  -1   9  -4   59.71    2.55
  -1  -9  -4   70.17    4.04
   1   9   4   75.87    3.59
  -1  -9  -5   56.43    4.00
   1   9   5   54.19    3.06
  -1   9  -5   44.03    1.98
  -1  -9  -5   54.58    3.55
  -1  -9  -6    5.68    1.52
  -1  -9  -6    6.30    1.54
   1   9   6    6.08    1.27
  -1  -9  -7   14.67    1.89
  -1  -9  -7   17.06    2.04
  -1  -9  -8    1.93    1.09
   1   9   8    2.39    0.87
  -1  -9  -8    2.62    0.96
  -1  -9  -9    9.09    1.42
   1   9   9    7.92    1.00
  -1  -9  -9    9.95    1.16
  -1  -9 -10   26.26    1.83
   1 -10  -6   25.68    1.88
  -1  10   6   24.98    1.69
  -1  10   5   91.07    3.28
   1 -10  -5   92.96    3.88
  -1  10   4  127.67    3.99
   1 -10  -4  142.92    5.22
  -1  10   3   35.04    2.28
   1  10  -3   29.73    1.46
  -1  10   2  131.92    4.15
   1  10  -2  125.19    3.27
   1 -10  -1  157.31    6.15
  -1 -10   1  187.33    7.47
  -1  10   0   10.43    1.30
   1 -10   0   15.01    2.28
  -1 -10   0   16.55    2.66
   1  10   0   10.25    1.26
   1  10   1  122.05    3.87
  -1 -10  -1  180.88    7.28
   1  10   2   76.64    3.17
   1 -10   2  126.08    5.53
  -1 -10  -2  107.93    5.57
  -1  10  -2   73.90    2.69
  -1 -10  -3   65.73    4.33
   1  10   3   60.24    2.84
   1  10   4   50.69    2.57
  -1 -10  -4   61.12    3.84
  -1 -10  -5  134.65    5.13
   1  10   5  125.64    3.78
   1  10   6   16.04    1.36
  -1 -10  -6   20.11    1.91
   2   0 -16  320.87    6.25
   2   0 -16  376.45    6.30
   2   0 -15    2.06    0.77
   2   0 -15    0.51    0.72
   2   0 -14   27.96    2.10
   2   0 -14   24.87    2.08
   2   0 -13    0.36    0.68
   2   0 -13    0.35    0.70
   2   0 -13    0.15    0.81
   2   0 -12  422.78    8.13
   2   0 -12  425.38    7.54
   2   0 -12  423.77    7.65
   2   0 -12  411.66    5.82
  -2   0  11    1.05    0.98
  -2   0  11    0.35    0.61
   2   0 -11    1.19    0.70
  -2   0  10 1864.91   18.53
  -2   0  10 2043.85   23.80
  -2   0   9    0.12    0.42
   2   0  -9    0.45    0.52
  -2   0   9    0.52    0.62
  -2   0   8 2155.32   16.22
  -2   0   8 2266.66   19.80
   2   0  -7    2.83    0.76
  -2   0   7    1.06    0.52
  -2   0   6 4401.06   17.99
   2   0  -6 4235.27   21.90
   2   0  -5    1.25    0.24
  -2   0   5    1.13    0.49
  -2   0   5    1.54    0.36
  -2   0   5    0.40    0.29
  -2   0   5    0.58    0.23
   2   0  -5    0.02    0.49
  -2   0   4 3761.36   11.15
  -2   0   4 3739.38   16.85
   2   0  -3    0.33    0.36
  -2   0   3    0.67    0.41
   2   0  -3    0.22    0.62
   2   0  -2  142.42    3.59
   2   0  -2  135.35    2.97
  -2   0   1    4.05    0.65
   2   0  -1    2.07    0.54
   2   0   0  937.84    7.46
   2   0   0  939.00    8.72
   2   0   1    0.19    0.30
   2   0   1    0.64    0.57
   2   0   1    1.65    0.57
   2   0   2  173.71    4.02
   2   0   2  185.22    4.20
   2   0   3    0.16    0.42
  -2   0  -3    0.14    0.36
   2   0   3    0.26    0.60
   2   0   4 2582.39   14.74
   2   0   4 2541.29   17.94
  -2   0  -5    0.02    0.39
   2   0   5    0.56    0.72
  -2   0  -6 7464.73   20.48
   2   0   6 7353.27   36.20
  -2   0  -7    6.02    0.93
  -2   0  -7    0.22    0.26
   2   0   8 1767.55   20.70
  -2   0  -8 1773.45   15.05
  -2   0  -9    0.28    0.56
   2   0   9    5.31    1.51
   2   0  10  141.79    7.74
   2   0  10  144.59    7.30
  -2   0 -10  134.07    4.68
   2   0  11    1.95    1.43
  -2   0 -11    0.32    0.93
   2   0  11    3.92    1.81
  -2   0 -11    0.88    0.67
  -2   0 -12  320.88    7.12
  -2   0 -13    2.16    0.99
  -2   0 -14   51.60    3.23
  -2   0 -14   60.70    3.74
  -2   0 -15   -0.25    1.19
  -2   0 -16  150.44    5.26
  -2   0 -17    0.98    0.88
  -2   0 -17    0.42    0.79
  -2   0 -18  451.27    6.74
  -2   0 -18  421.61    6.09
   2  -1 -17   23.75    1.61
   2  -1 -17   23.87    1.72
   2  -1 -16    5.90    1.05
   2  -1 -16    4.95    1.07
   2  -1 -15   32.31    2.37
   2  -1 -15   31.12    2.26
   2  -1 -15   32.54    2.43
   2  -1 -14  301.91    7.36
   2  -1 -14  322.99    7.37
   2  -1 -14  316.01    7.23
   2  -1 -13   67.83    3.37
   2  -1 -13   63.31    3.43
   2   1 -13   70.03    3.12
   2  -1 -13   67.28    3.39
   2   1 -12    1.91    0.59
   2  -1 -12    0.26    0.78
   2  -1 -12    0.12    0.70
   2  -1 -12    0.51    0.73
  -2   1  12    0.40    1.14
   2  -1 -11   11.49    1.54
  -2  -1  11   14.42    2.30
  -2  -1  11   15.20    1.98
   2  -1 -11   14.65    1.58
  -2   1  11   16.40    2.65
   2  -1 -11   12.38    1.40
  -2   1  11   15.00    1.83
  -2  -1  10  743.14   12.65
  -2   1  10  755.64   11.40
  -2   1   9    4.43    0.94
  -2   1   9   12.56    1.89
  -2  -1   9    9.55    1.52
   2  -1  -9    5.61    1.14
  -2   1   8    0.36    0.46
  -2  -1   8    1.04    0.59
  -2   1   8    0.74    0.73
  -2   1   8    0.97    0.50
   2  -1  -7    8.23    1.13
  -2   1   7   10.23    1.40
  -2   1   7    8.88    0.98
   2  -1  -7   10.52    1.47
  -2  -1   7    8.91    1.15
   2  -1  -6 1789.31   16.00
  -2   1   6 1798.51   15.36
  -2   1   6 1784.86   11.16
   2  -1  -6 1770.94   15.11
  -2   1   5  203.05    3.31
   2  -1  -5  205.25    3.56
  -2  -1   5  227.31    4.05
  -2  -1   5  252.51    3.38
   2  -1  -5  188.42    5.14
  -2   1   5  225.11    4.95
  -2  -1   5  203.70    2.32
   2  -1  -5  226.12    5.29
   2   1  -5  205.73    4.87
   2   1  -4   16.87    1.43
  -2   1   4  198.62    3.27
  -2  -1   4  183.39    3.72
  -2   1   4  148.74    2.39
   2  -1  -4   82.38    3.13
  -2   1   4  175.09    4.12
   2  -1  -4    0.05    0.37
  -2  -1   4  162.18    2.53
   2  -1  -3   -0.19    0.54
  -2   1   3  383.98    5.97
  -2   1   3  412.55    4.78
   2   1  -3   -0.08    0.31
   2  -1  -3  390.34    5.08
  -2  -1   2 6215.48   18.37
  -2  -1   2 5528.52   11.57
   2   1  -2 6065.25   21.29
  -2  -1   2 5765.09   16.79
   2  -1  -2 6014.94   20.14
   2  -1  -2 5830.96   24.25
  -2   1   2 6028.46   22.18
   2   1  -1   84.93    2.11
  -2  -1   1   86.43    2.40
   2  -1  -1   85.58    2.03
  -2   1   1   79.94    2.63
   2  -1   0   13.73    1.00
  -2  -1   0   15.72    0.67
  -2   1   0   14.90    1.23
   2  -1   0   14.08    1.10
   2   1   0   14.71    0.69
  -2  -1   0   15.72    1.14
   2  -1   1  773.30    7.92
   2   1   1  773.54    6.94
  -2  -1  -1  779.11    7.40
   2  -1   2 4954.53   21.44
   2   1   2 4975.07   19.91
  -2  -1  -2 4904.72    9.24
   2   1   3 1346.68   12.35
  -2  -1  -3 1359.99    9.68
   2  -1   3 1203.46   11.40
  -2  -1  -3 1283.06    3.94
  -2   1  -4   43.04    1.31
   2   1   4   41.76    2.33
  -2  -1  -5  135.07    3.73
   2  -1   5  137.49    2.61
  -2   1  -5  138.25    2.81
   2  -1   5  140.62    4.67
  -2  -1  -6  976.54    8.26
  -2   1  -6 1033.80    8.27
   2  -1   6 1044.38   13.56
  -2   1  -6 1066.01    7.82
   2   1   6  897.95   13.49
  -2  -1  -6 1019.54   10.81
   2  -1   6  943.43    9.57
   2   1   6  948.63   12.87
   2  -1   7  241.58    7.22
   2   1   7  235.97    7.68
   2   1   7  229.85    6.93
  -2  -1  -7  252.53    5.85
  -2   1  -7  265.70    4.69
  -2  -1  -7  243.48    4.19
   2  -1   7  206.19    3.94
  -2   1  -7  258.59    3.72
  -2   1  -8   41.14    1.26
  -2   1  -8   46.76    2.16
   2   1   8   44.98    3.41
   2   1   8   46.11    3.73
   2  -1   8   43.83    3.54
  -2  -1  -8   42.36    1.77
  -2  -1  -9   78.57    3.75
   2   1   9   82.25    5.33
   2   1   9   84.28    4.91
  -2   1  -9   81.10    3.09
   2  -1   9   72.39    4.68
  -2  -1  -9   71.58    2.19
   2   1  10 1392.73   23.27
   2   1  10 1396.72   21.24
  -2   1 -10 1366.60   14.17
   2  -1  10 1376.25   23.13
  -2  -1 -11   27.60    2.21
   2   1  11   28.35    3.71
  -2  -1 -11   28.39    2.57
   2  -1  11   32.52    4.20
  -2   1 -11   30.94    2.09
  -2   1 -11   28.82    2.42
  -2  -1 -12   14.81    1.97
  -2   1 -12   10.87    1.46
  -2  -1 -12   10.12    1.32
  -2   1 -12   12.49    1.84
  -2  -1 -12   11.43    1.59
   2  -1  12    9.87    2.73
  -2  -1 -13  173.07    5.00
  -2  -1 -13  177.66    5.90
  -2  -1 -13  184.53    6.56
  -2   1 -13  172.02    5.33
  -2  -1 -14  151.56    5.87
  -2  -1 -14  151.95    5.63
  -2   1 -14  139.33    4.88
  -2  -1 -14  140.68    4.53
  -2  -1 -15   91.12    4.47
  -2   1 -15   89.57    4.33
  -2   1 -15   83.13    3.75
  -2  -1 -15   92.59    4.50
  -2  -1 -15   95.74    3.51
  -2   1 -16    0.07    0.75
  -2   1 -16    3.11    1.24
  -2  -1 -16    0.39    0.98
  -2  -1 -16    1.79    1.11
  -2  -1 -17   74.75    3.29
  -2   1 -17   77.22    3.03
  -2  -1 -17   84.48    3.69
  -2   1 -17   79.23    3.38
  -2   1 -18    2.08    0.59
  -2   1 -18    2.62    0.74
  -2  -1 -19   34.27    1.52
   2  -2 -18    5.67    0.71
   2  -2 -18    4.55    0.72
   2  -2 -17    1.02    0.70
   2  -2 -17    1.41    0.66
   2  -2 -16   86.10    3.52
   2  -2 -16   84.09    3.68
   2  -2 -16   88.38    3.57
   2  -2 -15   49.64    3.06
   2  -2 -15   48.62    3.12
   2  -2 -14  586.41   10.33
   2  -2 -14  563.26   10.51
   2   2 -14  581.44    7.32
   2  -2 -13  354.69    8.04
   2   2 -13  358.62    5.84
   2  -2 -12  597.34   10.19
   2  -2 -12  573.86   10.54
   2   2 -12  603.13    7.66
   2   2 -12  601.83    7.55
   2  -2 -11  359.09    5.64
   2  -2 -11  335.44    7.78
   2  -2 -11  350.00    7.54
   2   2 -11  337.08    5.67
   2   2 -11  351.06    5.55
   2  -2 -11  363.72    7.50
  -2   2  10 1046.28   13.96
   2  -2 -10 1021.84   12.06
   2  -2 -10 1026.77   12.68
  -2   2   9   57.37    3.06
  -2   2   9   63.82    4.18
   2  -2  -9   66.34    4.08
  -2  -2   9   70.59    3.48
   2  -2  -9   55.35    2.86
  -2   2   8  617.51    8.97
   2  -2  -8  707.75   12.29
  -2   2   8  668.15   12.24
   2  -2  -8  608.97    6.88
  -2  -2   8  744.50    9.87
  -2   2   7   90.67    3.16
   2  -2  -7   95.73    3.91
  -2  -2   7  104.04    3.18
  -2   2   7  102.07    4.29
   2  -2  -7  101.08    4.30
   2  -2  -7   97.52    3.00
  -2   2   6  424.18    6.11
  -2  -2   6  498.51    5.90
   2  -2  -6  402.10    7.72
  -2  -2   6  468.94    5.88
   2  -2  -6  433.92    8.23
  -2  -2   6  437.09    4.39
   2  -2  -6  443.04    6.33
  -2   2   6  473.16    8.49
  -2   2   5  333.95    4.99
   2  -2  -5  357.21    6.71
  -2  -2   5  395.89    4.48
   2  -2  -5  382.32    6.04
   2  -2  -5  333.89    7.18
  -2  -2   5  350.08    4.45
  -2   2   5  384.37    7.20
  -2  -2   4 1320.77    6.42
  -2   2   4 1236.42    9.19
   2  -2  -4 1471.86   11.59
   2  -2  -4 1340.46   13.91
  -2   2   4 1253.14   12.42
  -2  -2   4 1449.96    9.59
   2  -2  -4 1396.57   12.25
   2  -2  -3  408.44    6.17
   2  -2  -3  406.13    6.02
   2  -2  -2 3728.22   17.20
   2  -2  -2 3743.48   18.14
  -2  -2   1 1935.32   12.23
   2   2  -1 1945.35    4.85
   2   2   0 4596.67   16.36
   2  -2   0 4617.92   18.56
   2  -2   1 2265.30   13.98
   2  -2   1 2255.48   15.06
   2   2   2 5116.04   20.38
   2  -2   2 5072.79   23.56
   2  -2   3  686.14    8.95
  -2  -2  -3  703.29    7.80
   2  -2   3  701.57    9.23
   2   2   3  695.45    8.53
   2   2   4  484.39    8.01
   2  -2   4  473.82    8.21
  -2  -2  -5   19.31    1.62
   2   2   5   24.84    2.14
   2  -2   5   18.00    1.82
  -2  -2  -5   19.67    1.44
   2  -2   5   19.55    1.90
  -2  -2  -6  152.02    2.55
  -2  -2  -6  149.12    3.96
   2  -2   6  146.56    4.91
   2  -2   6  139.58    5.34
  -2  -2  -6  142.11    4.62
   2   2   7   34.39    3.03
  -2  -2  -7   33.35    0.93
   2  -2   7   33.32    2.18
  -2  -2  -7   33.20    1.86
   2  -2   7   34.55    2.92
  -2   2  -8  769.80    6.02
   2  -2   8  785.76   15.22
  -2  -2  -8  770.34   12.41
  -2  -2  -8  746.37    8.85
   2  -2   9  149.13    7.24
  -2  -2  -9  144.17    5.58
   2   2   9  143.61    7.03
  -2  -2  -9  127.10    3.72
  -2  -2 -10 1290.02   14.50
   2   2  10 1272.37   22.30
  -2  -2 -11   94.71    3.92
  -2  -2 -11   84.30    4.82
   2  -2  11   83.39    6.51
  -2   2 -11   88.07    3.03
   2   2  11   91.76    6.52
  -2   2 -11   94.08    3.43
  -2  -2 -11   92.47    4.12
  -2  -2 -12  833.90   13.11
  -2  -2 -12  809.37   11.32
  -2  -2 -12  806.02   11.72
  -2   2 -12  795.37   10.50
  -2  -2 -12  784.23   14.76
  -2  -2 -13  539.57    9.46
  -2  -2 -13  555.72    9.71
  -2  -2 -13  536.55   10.99
  -2   2 -13  548.33    9.07
  -2   2 -14 1213.39   13.49
  -2  -2 -14 1250.79   16.91
  -2   2 -14 1324.71   16.19
  -2  -2 -14 1291.71   17.21
  -2  -2 -14 1236.14   14.04
  -2  -2 -14 1241.62   13.94
  -2  -2 -15  241.74    5.94
  -2  -2 -15  245.58    7.42
  -2   2 -15  225.79    5.60
  -2  -2 -15  247.75    7.28
  -2  -2 -15  216.12    5.37
  -2  -2 -16   59.59    2.72
  -2  -2 -16   59.19    3.35
  -2  -2 -16   54.46    3.43
  -2   2 -16   56.83    3.16
  -2   2 -16   51.61    2.60
  -2  -2 -17   12.70    1.09
  -2   2 -17   12.12    1.44
  -2   2 -17   10.60    1.03
  -2  -2 -17   11.62    1.61
  -2  -2 -18    8.00    1.18
  -2   2 -18    6.89    0.88
   2  -3 -18   46.22    1.73
   2  -3 -16   16.61    1.69
   2  -3 -16   16.52    1.69
   2  -3 -16   14.85    1.73
   2  -3 -15   41.02    2.81
   2   3 -15   33.35    1.76
   2  -3 -15   42.68    2.99
   2  -3 -14  350.21    8.66
   2  -3 -14  364.82    8.34
   2   3 -14  311.98    5.25
   2  -3 -14  329.83    8.15
   2   3 -14  351.63    5.94
   2   3 -13   89.73    3.31
   2   3 -13   79.16    2.87
   2  -3 -13   75.97    4.18
   2  -3 -13   76.66    4.25
   2  -3 -13   81.98    4.14
   2   3 -13   78.55    2.98
   2  -3 -12    3.78    1.33
   2   3 -12    2.05    0.74
   2   3 -12    2.93    0.87
   2  -3 -12    0.80    0.61
   2  -3 -12    3.26    1.54
   2  -3 -12    2.12    1.21
   2  -3 -11  160.73    5.50
  -2   3  11  183.41    8.83
   2  -3 -11  169.49    6.00
   2  -3 -11  172.65    4.20
   2   3 -11  165.00    4.11
   2  -3 -11  169.33    5.52
   2   3 -11  169.55    4.34
   2  -3 -11  165.42    5.52
   2  -3 -10  223.13    6.18
   2   3 -10  219.77    4.52
   2  -3 -10  214.47    5.96
   2  -3 -10  222.71    6.11
  -2   3  10  241.65    9.46
  -2   3  10  224.43    7.09
   2  -3 -10  225.05    8.65
   2  -3 -10  228.99    6.63
   2  -3  -9  442.66    8.05
   2  -3  -9  466.78    8.30
   2  -3  -9  491.76   11.75
   2  -3  -9  465.86    8.86
   2  -3  -9  469.70    9.56
  -2   3   9  501.12   12.40
  -2   3   9  439.97    9.24
   2  -3  -8   22.95    2.16
  -2   3   8   22.59    2.61
  -2   3   8   22.03    2.02
   2  -3  -8   23.06    1.76
   2  -3  -8   25.96    2.55
   2  -3  -7   47.65    2.62
   2  -3  -7   44.98    3.08
  -2   3   7   42.19    2.50
  -2   3   7   46.37    3.27
  -2  -3   6  229.64    5.13
  -2   3   6  217.51    5.31
   2  -3  -6  236.60    6.39
  -2   3   6  248.39    6.88
   2  -3  -6  234.94    5.59
   2  -3  -6  202.62    6.25
   2  -3  -5  152.76    4.78
   2  -3  -5  145.00    5.38
  -2   3   5  160.81    5.22
  -2  -3   5  156.62    4.21
   2  -3  -4  246.64    5.51
  -2  -3   4  227.92    4.94
  -2   3   3  642.43    9.30
   2  -3  -3  597.39    7.98
  -2  -3   2   52.08    2.49
   2  -3  -2   57.59    1.69
  -2   3   2   57.38    2.64
   2  -3  -1   88.76    2.59
   2  -3  -1  101.65    2.82
  -2   3   1   89.32    3.30
  -2  -3   1   99.24    3.40
  -2   3   0 1269.80   12.02
  -2  -3   0 1221.93   12.04
   2  -3   1   93.26    3.59
   2  -3   1   93.39    3.14
  -2  -3  -1   96.22    3.53
   2   3   1   98.92    3.16
  -2   3  -1  106.73    3.34
   2  -3   2   41.71    2.27
  -2  -3  -2   43.26    2.37
   2  -3   2   45.50    2.64
   2   3   2   44.27    2.24
   2   3   3    1.24    0.73
   2  -3   3    0.97    0.63
  -2  -3  -3    1.01    0.59
  -2  -3  -4  186.55    5.26
   2   3   4  183.32    5.43
  -2  -3  -4  195.77    5.04
   2   3   5  153.85    5.53
   2  -3   5  161.72    5.64
  -2  -3  -5  165.09    4.69
   2  -3   5  175.20    5.82
   2  -3   6   65.62    3.91
   2  -3   6   74.48    4.23
  -2  -3  -6   78.39    3.90
  -2  -3  -7  151.64    5.56
  -2  -3  -7  141.12    4.60
   2  -3   7  153.64    6.38
   2   3   7  148.45    6.52
   2  -3   7  155.70    5.96
  -2  -3  -7  141.37    3.37
  -2  -3  -8    1.19    0.63
   2   3   8    1.27    1.31
   2  -3   8    1.16    1.03
  -2  -3  -8    2.27    0.98
  -2  -3  -9 1108.70   13.60
  -2  -3  -9 1024.83   16.25
  -2  -3  -9  970.12   12.40
   2   3   9  912.10   18.62
   2  -3   9 1067.51   20.67
  -2  -3 -10  202.25    5.97
  -2   3 -10  209.98    4.84
   2  -3  10  201.60    9.89
  -2  -3 -10  201.27    6.22
  -2  -3 -10  182.33    7.25
   2   3  10  179.25    8.88
  -2   3 -11  737.74    9.42
  -2  -3 -11  687.51   11.36
  -2  -3 -11  699.28   12.36
   2   3  11  681.13   18.02
  -2  -3 -11  700.35   14.84
  -2  -3 -11  689.14   13.28
  -2   3 -12  211.44    5.15
  -2  -3 -12  230.71    7.42
  -2  -3 -12  228.51    6.76
  -2  -3 -12  229.09    6.65
  -2  -3 -12  239.00    7.99
  -2   3 -12  242.46    5.69
  -2  -3 -13    5.45    1.66
  -2  -3 -13    4.13    1.37
  -2   3 -13    6.63    1.20
  -2  -3 -13    4.75    1.68
  -2   3 -13    4.15    1.59
  -2  -3 -14  242.06    7.78
  -2   3 -14  230.46    5.43
  -2   3 -14  248.71    7.03
  -2  -3 -14  220.68    6.39
  -2  -3 -14  234.25    7.54
  -2  -3 -15    2.66    1.31
  -2  -3 -15    2.74    1.37
  -2  -3 -15    2.83    1.02
  -2   3 -15    2.55    1.19
  -2   3 -15    3.03    0.82
  -2  -3 -16   56.88    2.77
  -2  -3 -16   58.35    3.49
  -2  -3 -16   52.14    2.43
  -2  -3 -17    1.85    1.01
  -2   3 -17    1.42    0.72
  -2  -3 -17    2.99    0.75
  -2  -3 -18  118.05    3.63
  -2   3 -18   74.72    2.08
   2  -4 -17  158.20    3.80
   2  -4 -16   27.28    2.18
   2  -4 -16   26.08    1.96
   2  -4 -16   23.17    1.90
   2  -4 -15   41.74    3.03
   2  -4 -15   43.28    2.74
   2  -4 -15   44.50    2.89
   2   4 -15   41.19    1.91
   2  -4 -14    5.34    1.49
   2   4 -14    4.78    0.93
   2   4 -14    5.49    0.94
   2  -4 -14    6.10    1.58
   2  -4 -14    7.37    1.48
   2  -4 -13   72.97    3.97
   2  -4 -13   68.96    4.13
   2  -4 -13   64.83    4.01
   2   4 -13   63.22    2.69
   2   4 -13   65.82    2.79
   2   4 -12  103.02    3.55
   2  -4 -12  115.68    5.26
   2  -4 -12  101.74    5.04
   2  -4 -12  115.58    5.03
   2  -4 -12  111.15    3.40
   2   4 -11   10.24    1.29
   2  -4 -11    6.99    1.66
   2   4 -11    7.59    1.14
   2  -4 -11    6.82    1.57
   2  -4 -11    7.78    1.66
   2  -4 -10   69.39    4.93
   2  -4 -10   70.87    4.04
   2  -4 -10   68.64    3.93
   2   4 -10   70.52    2.99
   2  -4 -10   68.56    3.98
   2   4 -10   68.76    2.78
   2  -4 -10   68.95    3.60
  -2   4  10   77.51    5.79
   2  -4  -9  161.63    5.56
   2  -4  -9  159.03    5.66
   2  -4  -9  155.62    6.08
   2  -4  -9  164.10    7.17
   2   4  -9  163.66    4.46
   2  -4  -9  177.37    5.41
  -2   4   9  163.72    7.77
   2   4  -9  175.34    4.21
   2  -4  -8  657.80    9.59
   2  -4  -8  679.13   10.72
  -2   4   8  688.49   14.52
   2  -4  -8  682.49   13.51
   2   4  -8  668.51    7.71
   2  -4  -8  659.69   10.69
   2  -4  -8  657.88   11.10
  -2   4   7 2277.67   25.03
   2  -4  -7 2264.13   20.41
  -2  -4   6  646.16   11.08
   2  -4  -6  648.00   10.98
   2  -4  -6  626.66   12.42
   2  -4  -6  657.63   11.44
  -2   4   5 1966.77   20.39
  -2  -4   5 1883.97   18.25
   2  -4  -4  182.42    5.27
  -2   4   4  190.56    5.88
   2  -4  -3  736.83    9.71
  -2   4   3  738.53   10.72
   2  -4  -2  357.32    4.70
   2  -4  -2  372.85    6.32
   2  -4  -1 1008.23    9.59
  -2  -4   1 1015.49   13.14
  -2  -4   0  116.31    4.55
   2  -4   0  107.39    3.42
   2   4   0  113.94    1.62
   2  -4   0  117.26    4.57
  -2   4   0  122.32    3.98
   2  -4   1  579.27    8.49
  -2  -4  -1  572.92   10.18
   2   4   1  592.89    5.83
   2  -4   1  595.34   10.32
  -2  -4  -2  155.12    5.36
   2  -4   2  175.78    5.80
   2   4   3 1097.74   13.94
  -2  -4  -3 1078.99   14.02
  -2  -4  -4 1363.98   15.83
   2   4   4 1381.34   16.60
   2  -4   4 1392.35   17.48
  -2  -4  -4 1358.39   15.90
  -2  -4  -5 2218.17   21.15
   2   4   5 2259.81   23.13
  -2  -4  -5 2251.22   20.58
  -2  -4  -6  653.16   12.09
   2  -4   6  679.02   13.64
   2  -4   6  640.06   13.10
  -2  -4  -7 1837.54   21.80
   2  -4   7 2045.81   26.08
  -2  -4  -7 1736.52   18.47
   2  -4   7 1871.53   23.99
   2   4   7 1655.98   23.43
  -2  -4  -7 1976.88   17.04
  -2  -4  -8  242.51    8.35
  -2  -4  -8  225.55    7.96
  -2  -4  -8  247.55    7.04
   2  -4   8  213.63    9.06
  -2  -4  -8  226.22    7.04
  -2   4  -8  238.15    4.82
   2   4   8  217.00    9.14
  -2   4  -9  575.22    7.90
   2   4   9  548.69   15.49
  -2  -4  -9  570.88   13.16
  -2  -4  -9  545.99   10.70
  -2  -4 -10  223.93    7.38
  -2   4 -10  217.28    5.08
  -2  -4 -10  205.71    6.73
   2  -4  10  246.07   11.41
   2   4  10  221.20   10.43
  -2  -4 -10  228.07    8.72
  -2   4 -10  241.43    5.13
  -2  -4 -11   57.62    4.42
  -2   4 -11   59.47    2.64
  -2  -4 -11   50.94    3.73
  -2   4 -11   54.98    2.77
  -2  -4 -11   57.60    3.77
  -2  -4 -12  118.02    5.67
  -2  -4 -12  124.33    6.18
  -2   4 -12  112.76    3.90
  -2  -4 -12  126.49    5.19
  -2  -4 -13   36.34    2.86
  -2  -4 -13   31.03    3.12
  -2  -4 -14   31.40    2.67
  -2  -4 -14   30.79    2.57
  -2   4 -14   30.77    2.59
  -2  -4 -14   33.51    3.17
  -2  -4 -15   28.10    2.69
  -2  -4 -15   24.56    2.13
  -2  -4 -15   23.99    2.10
  -2   4 -15   22.30    2.08
  -2  -4 -16   95.24    4.31
  -2  -4 -16   80.73    3.03
  -2  -4 -17  234.55    5.69
  -2  -4 -17  223.16    4.27
  -2  -4 -18   82.54    2.62
   2  -5 -17    3.62    0.63
   2  -5 -16   59.86    2.64
   2  -5 -16   66.37    2.67
   2   5 -15  102.10    2.81
   2  -5 -15  117.92    4.61
   2  -5 -15  120.01    4.05
   2  -5 -15  107.85    4.14
   2  -5 -14   -0.13    1.00
   2  -5 -14    0.13    0.87
   2  -5 -14    0.60    1.04
   2   5 -14    0.29    0.55
   2  -5 -13  119.85    4.85
   2  -5 -13  112.04    5.15
   2   5 -13  111.57    3.57
   2  -5 -13  121.25    5.57
   2  -5 -12   75.70    4.45
   2  -5 -12   72.67    2.77
   2  -5 -12   77.83    4.08
   2  -5 -12   78.30    4.66
   2   5 -12   69.36    3.03
   2   5 -11  232.27    5.54
   2  -5 -11  235.00    7.86
   2  -5 -11  231.40    7.56
   2   5 -11  211.24    5.22
   2  -5 -11  226.84    6.89
   2  -5 -10  100.88    5.00
   2  -5 -10  105.44    5.31
   2   5 -10  104.86    3.91
   2   5 -10   95.47    3.55
   2  -5 -10  102.87    4.56
   2   5  -9  225.19    5.26
   2  -5  -9  226.95    6.41
   2  -5  -9  234.36    7.23
   2  -5  -9  226.57    7.63
   2  -5  -8    0.46    0.56
   2  -5  -8    0.77    0.98
   2  -5  -8    0.89    0.80
   2   5  -8    1.77    0.85
   2  -5  -8    0.87    1.03
   2  -5  -8    1.34    1.02
   2   5  -8    0.75    0.69
  -2   5   8    0.87    0.73
   2  -5  -8    1.10    1.10
   2  -5  -7    2.97    0.94
   2  -5  -7    3.76    1.34
  -2   5   7    3.48    0.96
   2  -5  -7    2.58    0.82
   2   5  -7    2.70    0.94
   2  -5  -7    3.00    1.06
   2  -5  -7    3.87    1.30
   2  -5  -7    2.55    1.16
   2   5  -7    3.54    0.81
   2  -5  -6   13.61    1.98
   2  -5  -6   11.36    1.83
   2  -5  -6   14.89    1.80
   2   5  -6   15.49    1.57
   2  -5  -6   13.16    1.89
   2   5  -6   16.24    1.37
  -2  -5   5    0.46    0.74
   2  -5  -5    0.48    0.68
  -2   5   5    0.68    0.92
  -2  -5   4    5.08    1.32
   2  -5  -4    5.54    1.14
   2  -5  -4    6.69    1.43
  -2   5   4    4.96    1.27
  -2   5   3  404.24    9.07
   2  -5  -3  433.15    8.33
  -2  -5   3  401.20   10.27
   2  -5  -2  127.15    4.19
  -2   5   2  118.64    4.69
  -2   5   1  110.77    4.39
   2  -5  -1  112.93    5.17
   2  -5  -1  109.97    3.58
  -2  -5   1  109.68    5.35
   2  -5   0  172.99    6.49
  -2  -5   0  175.60    6.77
   2  -5   0  173.66    4.96
  -2   5   0  191.86    5.32
   2  -5   1  553.39   11.51
   2  -5   1  530.33    9.28
  -2  -5  -1  523.18    9.76
  -2  -5  -1  528.73   11.54
   2  -5   2   34.08    3.04
  -2  -5  -2   25.80    2.38
   2  -5   2   27.77    2.34
   2   5   2   32.63    1.89
  -2  -5  -2   26.99    2.72
  -2  -5  -3  286.05    7.86
   2  -5   3  279.38    7.64
  -2  -5  -3  284.18    8.49
  -2  -5  -4   85.27    4.79
   2   5   4   95.45    3.97
   2  -5   4   93.23    5.18
   2  -5   5  107.70    5.96
  -2  -5  -5   94.34    4.94
   2  -5   5   87.93    4.96
   2   5   5  103.82    4.64
   2   5   5  101.57    5.59
  -2  -5  -5   90.73    4.97
   2  -5   6   93.62    5.48
  -2  -5  -6  102.32    5.43
  -2  -5  -6   98.99    3.91
   2  -5   6  109.77    6.31
  -2  -5  -6   98.29    4.28
   2   5   6  100.43    6.14
   2   5   6  112.09    5.42
  -2   5  -6   97.66    3.13
  -2   5  -7    0.89    0.65
  -2  -5  -7    0.61    0.77
  -2  -5  -7    4.64    1.01
  -2  -5  -7    3.23    1.30
   2  -5   7    6.69    1.73
  -2  -5  -7    1.21    1.15
   2   5   7    0.55    0.90
   2   5   7    1.02    1.66
  -2  -5  -7    4.48    1.14
  -2   5  -8    3.22    0.84
   2   5   8    4.99    2.11
  -2  -5  -8    4.46    1.01
  -2  -5  -8    4.48    1.47
  -2  -5  -8    3.43    1.10
  -2  -5  -8    3.69    1.46
   2   5   8    4.28    1.57
  -2  -5  -8    4.10    1.20
  -2   5  -9  325.33    6.26
  -2  -5  -9  314.41    6.95
  -2  -5  -9  297.02    9.08
  -2  -5  -9  321.35    7.58
  -2  -5  -9  330.83    8.88
  -2  -5  -9  296.35    9.12
  -2   5 -10  317.57    6.43
  -2  -5 -10  257.79    6.69
  -2  -5 -10  282.51    9.02
  -2  -5 -10  321.80    8.97
  -2  -5 -10  292.74    6.61
  -2   5 -11  123.98    4.16
  -2  -5 -11  125.31    5.82
  -2  -5 -12   34.13    2.95
  -2  -5 -12   27.15    3.04
  -2   5 -12   30.58    2.15
  -2  -5 -12   34.14    3.15
  -2  -5 -13   38.30    2.93
  -2  -5 -13   37.44    3.37
  -2  -5 -13   41.97    3.25
  -2  -5 -14   47.17    3.58
  -2   5 -14   48.06    2.84
  -2  -5 -14   46.41    3.12
  -2  -5 -14   48.59    3.17
  -2   5 -15   79.23    3.17
  -2  -5 -15   92.27    3.78
  -2  -5 -15   91.90    4.38
  -2  -5 -15   83.08    3.63
  -2  -5 -16  136.07    4.54
  -2  -5 -16  133.43    3.86
  -2  -5 -17   53.91    2.30
   2  -6 -16    3.21    0.60
   2  -6 -15  217.53    4.70
   2  -6 -15  211.59    4.99
   2   6 -14   18.07    1.29
   2  -6 -14   20.23    1.79
   2  -6 -14   18.40    1.92
   2   6 -14   15.56    1.04
   2  -6 -13  292.53    8.33
   2  -6 -13  289.37    6.69
   2  -6 -13  295.85    7.41
   2   6 -13  280.66    5.28
   2  -6 -12    5.83    1.33
   2   6 -12    5.87    1.08
   2  -6 -12    9.43    1.74
   2  -6 -12    5.67    1.73
   2   6 -11  443.77    7.52
   2  -6 -11  456.28    9.25
   2  -6 -11  453.53   10.16
   2  -6 -11  467.15   11.70
   2   6 -10    2.34    0.96
   2  -6 -10    1.43    1.53
   2  -6 -10    1.54    1.32
   2  -6  -9  576.51   10.26
   2  -6  -9  569.01   11.63
   2  -6  -9  577.07    9.35
   2  -6  -9  602.51   13.67
   2   6  -9  590.70    9.02
   2   6  -8    0.32    0.83
   2  -6  -8    0.38    0.73
   2  -6  -8    1.06    0.89
  -2   6   8    0.67    0.80
   2  -6  -8    1.24    1.29
   2   6  -7   36.73    2.18
  -2   6   7   42.57    2.75
   2  -6  -7   36.44    2.54
   2  -6  -7   37.30    2.62
   2  -6  -7   36.53    2.94
   2  -6  -6    4.27    1.55
   2   6  -6    3.37    0.87
   2  -6  -6    4.94    1.39
  -2   6   6    5.16    1.09
   2  -6  -6    4.40    1.32
   2  -6  -6    3.25    1.17
   2  -6  -6    4.21    1.02
   2  -6  -6    4.03    1.00
  -2   6   6    8.14    2.03
  -2  -6   5   99.52    6.28
   2  -6  -5  110.45    3.93
  -2   6   5  114.69    6.08
   2  -6  -5  113.42    5.43
   2  -6  -5  106.17    4.40
   2  -6  -4  162.33    6.98
  -2   6   4  165.09    4.67
   2  -6  -4  150.22    4.98
  -2  -6   4  141.23    5.59
   2  -6  -4  150.72    5.09
  -2  -6   4  135.03    5.86
   2  -6  -4  168.81    6.23
   2   6  -4  155.61    4.00
  -2   6   4  169.21    6.94
  -2  -6   4  140.57    7.39
  -2   6   3 1546.69   19.87
  -2   6   3 1479.72   13.31
  -2  -6   3 1245.15   21.40
   2  -6  -3 1287.98   19.61
   2  -6  -3 1316.61   15.02
  -2  -6   3 1343.59   18.05
  -2  -6   3 1296.00   16.55
   2   6  -3 1448.90   11.75
  -2  -6   2   38.29    2.90
  -2   6   2   42.45    3.17
   2  -6  -2   41.06    3.64
   2  -6  -2   36.62    2.62
  -2  -6   2   38.26    3.17
  -2   6   2   38.60    2.15
   2  -6  -1 1234.71   14.26
   2  -6  -1 1211.76   19.38
  -2  -6   0  139.60    5.52
   2  -6   0  133.46    6.43
   2  -6   0  138.62    4.94
  -2  -6   0  145.98    5.92
  -2  -6   0  135.23    5.33
  -2  -6   0  138.77    7.08
  -2  -6  -1 1955.74   21.31
  -2  -6  -1 2042.27   19.93
   2  -6   1 1976.12   20.15
   2  -6   1 1972.41   25.08
  -2   6  -1 2032.09   14.39
  -2  -6  -1 2091.96   22.07
   2  -6   1 1945.03   18.32
  -2  -6  -1 1949.34   26.78
   2  -6   2    3.71    1.15
  -2  -6  -2    2.40    1.30
  -2  -6  -2    2.45    1.04
  -2  -6  -2    2.12    1.19
  -2   6  -3 1461.75   12.12
  -2  -6  -3 1273.29   18.82
  -2   6  -3 1363.99   11.73
  -2  -6  -3 1386.81   18.16
  -2  -6  -3 1328.73   16.18
   2  -6   3 1321.38   16.01
  -2  -6  -3 1236.74   21.41
   2  -6   3 1334.63   21.62
   2  -6   3 1245.70   18.05
  -2   6  -4    3.42    0.82
  -2  -6  -4    3.57    1.16
   2  -6   4    2.90    1.09
   2  -6   4    4.80    1.45
  -2   6  -4    3.39    0.74
  -2  -6  -4    1.62    1.18
  -2  -6  -4    3.73    1.32
   2  -6   4    3.16    1.41
  -2  -6  -4    4.01    1.39
  -2   6  -5   21.31    1.62
  -2  -6  -5   20.13    2.36
  -2  -6  -5   22.59    2.85
   2  -6   5   17.02    2.54
   2  -6   5   34.38    2.89
  -2  -6  -5   16.20    2.56
  -2   6  -5   40.08    2.09
  -2  -6  -5   16.86    1.97
  -2  -6  -6    8.40    1.86
  -2  -6  -6    8.40    1.98
  -2  -6  -6    7.86    1.85
   2  -6   6    8.91    1.73
  -2   6  -6    7.81    1.01
   2  -6   6    8.39    2.00
  -2  -6  -7   10.23    2.18
  -2  -6  -7    9.65    1.76
  -2  -6  -7   11.29    1.64
  -2   6  -7   11.70    1.32
  -2   6  -8   44.98    2.54
  -2  -6  -8   46.97    4.10
  -2  -6  -8   45.03    3.00
  -2  -6  -8   39.78    3.52
  -2  -6  -8   42.71    3.21
  -2   6  -9  196.56    5.25
  -2  -6  -9  180.46    7.77
  -2  -6  -9  204.70    7.63
  -2  -6  -9  194.02    5.88
  -2  -6  -9  176.69    6.21
  -2   6 -10    6.35    1.24
  -2  -6 -10    1.54    1.45
  -2  -6 -10    1.36    0.88
  -2  -6 -10    4.28    1.80
  -2  -6 -10    2.50    1.03
  -2   6 -11  347.12    6.84
  -2  -6 -11  374.11    9.06
  -2  -6 -11  363.59   10.02
  -2  -6 -12  117.50    4.98
  -2  -6 -12  117.53    5.46
  -2  -6 -12  107.98    5.62
  -2  -6 -13  604.13   12.00
  -2  -6 -13  608.50   11.12
  -2  -6 -13  600.95   10.34
  -2  -6 -14   42.38    2.83
  -2   6 -14   38.48    2.24
  -2  -6 -14   43.77    2.74
  -2  -6 -15  179.69    4.66
  -2  -6 -15  182.76    4.63
  -2  -6 -16    1.70    0.57
   2  -7 -14    2.15    0.78
   2   7 -13   39.63    1.82
   2  -7 -13   40.86    2.47
   2   7 -13   33.74    1.45
   2   7 -12    1.47    0.79
   2  -7 -12    2.62    1.16
   2  -7 -12    2.48    0.90
   2  -7 -11   74.00    3.37
   2  -7 -11   74.85    3.87
   2   7 -11   69.82    2.89
   2  -7 -10    0.46    0.56
   2   7 -10    0.37    0.81
   2  -7 -10    1.06    0.84
   2  -7 -10    0.65    1.03
  -2   7   9   69.03    3.52
   2  -7  -9   64.12    3.32
   2  -7  -9   63.59    3.13
   2   7  -9   65.63    3.06
  -2   7   8   38.66    2.74
   2  -7  -8   37.06    3.03
   2  -7  -8   34.69    2.50
   2  -7  -8   35.19    2.58
   2   7  -8   35.78    2.34
  -2   7   7   12.31    1.69
   2  -7  -7   13.62    1.98
   2  -7  -7   11.08    1.64
   2  -7  -7   11.33    1.56
   2   7  -7   11.64    1.46
   2  -7  -6    8.26    1.60
   2  -7  -6    9.25    1.38
   2   7  -5   12.92    1.17
   2  -7  -5   14.61    1.91
   2   7  -5   13.42    1.48
  -2  -7   5   10.99    2.07
   2  -7  -5   15.61    1.94
  -2   7   5   14.79    1.75
  -2  -7   4  205.73    7.69
   2  -7  -4  212.66    6.79
  -2  -7   4  204.48    8.18
   2  -7  -4  224.27    6.44
  -2   7   4  241.44    6.24
   2   7  -4  236.16    5.42
  -2  -7   3  162.96    6.71
   2  -7  -3  160.26    5.93
  -2   7   3  181.78    5.30
  -2  -7   3  164.44    7.33
   2   7  -3  177.07    4.60
  -2  -7   2   36.45    3.29
  -2   7   2   42.80    2.65
   2  -7  -2   42.73    3.22
  -2  -7   2   39.67    3.71
   2   7  -2   43.13    2.26
  -2   7   1  387.29    7.37
   2  -7  -1  357.04    8.99
  -2  -7   0  128.50    6.49
  -2  -7   0  127.25    5.99
   2  -7   0  122.54    5.30
  -2   7   0  120.59    4.12
  -2   7  -1  430.62    7.54
  -2  -7  -1  454.06   12.13
   2  -7   1  423.86    9.89
  -2  -7  -1  441.07   11.02
  -2  -7  -2   54.67    4.07
  -2  -7  -2   56.78    4.47
  -2   7  -3  384.31    6.94
  -2  -7  -3  429.67   11.89
  -2   7  -3  443.21    7.21
  -2  -7  -3  403.47   10.68
   2  -7   3  407.12    9.85
  -2   7  -4   80.76    3.19
  -2  -7  -4   78.52    5.09
  -2  -7  -4   78.37    4.75
  -2   7  -4   70.03    2.90
   2  -7   4   76.91    4.48
  -2   7  -5   14.83    1.51
   2  -7   5   18.36    2.46
  -2   7  -5   14.03    1.41
  -2  -7  -5   14.01    2.12
  -2  -7  -5   14.13    2.40
  -2   7  -6   13.34    1.47
  -2   7  -6   11.75    1.27
  -2  -7  -6   14.26    2.11
   2  -7   6   15.88    2.31
  -2  -7  -6   12.85    2.22
  -2  -7  -7    3.75    1.73
  -2  -7  -8  324.78    8.96
  -2  -7  -8  333.86    9.81
  -2  -7  -8  323.23    8.27
  -2   7  -8  349.34    6.82
  -2  -7  -9   88.36    5.10
  -2  -7  -9   78.88    3.95
  -2  -7  -9   65.53    3.93
  -2  -7  -9   63.49    4.68
  -2  -7 -10   18.61    1.85
  -2  -7 -10   14.34    2.40
   2   7  10   16.67    1.68
  -2  -7 -10   17.55    2.54
  -2  -7 -10   18.45    2.18
  -2  -7 -11   48.40    3.18
  -2  -7 -11   49.39    3.69
  -2  -7 -11   48.78    3.73
  -2  -7 -12   75.74    3.64
  -2  -7 -12   81.98    4.22
  -2  -7 -12   84.16    4.31
  -2   7 -13   36.85    2.06
  -2  -7 -13   42.43    2.83
  -2  -7 -13   38.45    2.46
  -2  -7 -14   57.54    2.66
  -2  -7 -14   58.36    2.54
   2   8 -12    6.83    0.79
   2   8 -11   79.68    2.60
   2  -8 -11   83.57    3.33
   2   8 -10   13.54    1.29
   2  -8 -10   14.96    1.68
   2  -8 -10   12.10    1.24
   2  -8  -9   89.55    3.28
   2  -8  -9  103.65    4.21
  -2   8   9  108.64    4.00
   2  -8  -9   96.77    3.45
   2   8  -9   88.46    3.21
   2  -8  -8  122.65    4.69
  -2   8   8  128.73    4.58
   2  -8  -8  113.81    4.23
   2  -8  -7  372.65    8.12
  -2   8   7  379.51    7.96
   2  -8  -7  348.11    7.89
   2   8  -7  349.74    6.58
   2  -8  -6   81.35    3.94
   2  -8  -6   76.09    4.05
   2   8  -6   75.61    3.14
   2  -8  -5  588.64   10.28
   2  -8  -5  557.74   11.11
   2   8  -5  526.13    6.90
  -2  -8   5  602.75   13.29
  -2   8   5  607.63   10.27
   2   8  -5  563.14    8.33
   2  -8  -4  165.39    6.28
  -2  -8   4  169.44    7.41
  -2   8   4  172.21    5.51
   2   8  -4  148.85    3.98
   2   8  -4  163.54    4.47
  -2   8   3  165.39    5.51
  -2  -8   3  155.18    7.23
   2  -8  -3  165.67    6.60
   2   8  -3  161.63    4.33
  -2   8   2   58.94    3.40
   2  -8  -2   61.15    4.17
  -2  -8   2   59.40    5.11
  -2  -8   2   62.39    4.78
  -2   8   1  220.21    6.13
   2  -8  -1  223.60    7.87
  -2  -8   0  103.03    6.04
   2  -8   0   99.10    5.25
  -2   8   0   89.52    3.91
  -2  -8   0  103.46    6.66
  -2  -8  -1  107.03    6.19
  -2   8  -1   94.71    3.89
   2  -8   1   95.64    5.21
  -2  -8  -1  113.31    6.96
  -2  -8  -2    5.86    2.04
  -2  -8  -2    5.08    2.23
  -2   8  -3   98.67    3.63
  -2  -8  -3  115.17    6.44
  -2  -8  -3  117.04    7.08
   2  -8   3  119.78    5.73
  -2  -8  -4   79.78    5.18
  -2  -8  -4   77.83    4.77
  -2   8  -4   67.83    2.97
  -2  -8  -4   85.53    5.81
   2  -8   4   80.57    4.75
  -2  -8  -5  793.74   15.30
  -2   8  -5  718.45    9.18
  -2  -8  -5  762.37   14.51
  -2  -8  -5  772.78   12.42
  -2  -8  -5  835.22   16.65
  -2  -8  -6   85.34    4.26
  -2   8  -6   73.52    2.77
  -2  -8  -6   81.28    4.79
  -2  -8  -6   91.41    5.51
  -2  -8  -7  456.94    9.51
  -2  -8  -7  443.69   10.27
  -2  -8  -8  158.64    5.46
  -2  -8  -8  159.88    5.71
   2   8   8  153.99    4.88
  -2  -8  -8  153.24    6.35
   2   8   9   77.47    3.29
  -2  -8  -9   84.11    3.77
  -2  -8  -9   84.27    4.59
  -2  -8  -9   76.26    3.78
  -2  -8 -10   23.57    2.09
  -2  -8 -10   28.52    1.96
  -2  -8 -10   25.30    2.58
   2   8  10   22.73    1.69
  -2  -8 -11  106.72    3.88
  -2  -8 -11  113.22    4.54
  -2  -8 -12   20.01    1.54
  -2  -8 -12   23.01    1.96
  -2   8 -12   17.95    1.35
  -2   8 -13    1.91    0.52
  -2  -8 -13    2.72    0.78
   2   9  -8   34.73    1.72
  -2   9   8   39.07    2.22
   2  -9  -8   35.45    1.99
   2   9  -7    5.22    0.86
   2  -9  -7    5.10    1.10
  -2   9   7    6.81    1.21
   2  -9  -6    3.56    1.17
   2   9  -6    3.00    0.77
  -2   9   6    3.62    1.05
   2  -9  -5    2.48    1.18
   2   9  -5    2.86    0.74
  -2   9   5    2.60    1.07
   2   9  -4   65.82    2.41
  -2   9   4   76.72    3.51
   2  -9  -4   76.30    4.23
  -2   9   3    5.76    1.31
   2   9  -3    6.53    0.97
  -2  -9   3    8.30    2.13
   2  -9  -3    5.87    1.60
   2   9  -2   33.17    2.07
  -2  -9   2   41.20    4.03
  -2   9   2   36.21    2.54
   2  -9  -2   39.29    3.36
  -2   9   1   46.50    2.80
   2  -9  -1   47.51    3.67
  -2  -9   0    4.81    1.94
  -2   9   0    4.11    1.08
   2  -9   0    3.63    1.50
   2   9   0    3.53    1.07
  -2   9  -1   19.62    1.82
   2   9   1   19.21    1.93
   2  -9   1   22.23    2.63
  -2  -9  -1   21.93    3.18
   2   9   2   98.39    4.12
  -2  -9  -2  111.87    6.49
  -2  -9  -3    2.29    1.68
  -2   9  -3    2.11    0.80
  -2  -9  -3    2.48    1.44
   2  -9   3    4.45    1.52
   2   9   3    1.37    1.06
  -2  -9  -4  155.74    6.14
  -2  -9  -4  153.52    6.89
   2   9   4  144.90    4.90
  -2  -9  -5    7.80    1.74
  -2   9  -5    5.64    0.82
  -2  -9  -5    9.04    2.02
   2   9   5    7.22    1.34
   2   9   6    7.88    1.30
  -2  -9  -6    8.52    1.79
  -2  -9  -6    7.89    1.74
  -2  -9  -7    0.58    0.90
   2   9   7    1.29    0.86
  -2  -9  -7    0.89    1.20
  -2  -9  -8    1.99    1.09
   2   9   8    2.06    0.81
  -2  -9  -8    2.76    0.95
   2   9   9   93.91    2.77
  -2  -9  -9  113.46    3.38
   2 -10  -6    5.33    0.94
  -2  10   5   20.03    1.58
   2 -10  -5   19.65    1.74
  -2  10   4   14.92    1.52
   2 -10  -4   17.22    1.86
   2 -10  -3  142.57    5.08
  -2  10   3  131.26    4.06
   2  10  -2  129.23    3.07
  -2  10   2  133.44    4.08
   2  10  -1   60.47    2.40
  -2  10   1   62.98    2.87
  -2  10   0  272.06    5.59
   2  10   0  245.71    5.09
   2  10   1   82.31    3.14
  -2  10  -1   83.86    3.04
   2  10   2  132.66    4.00
  -2  10  -2  127.97    3.46
   2  10   3   94.13    3.42
  -2  10  -3   80.76    2.44
  -2 -10  -4   77.19    4.37
   2  10   4   64.67    2.79
  -2 -10  -5    5.56    1.41
   2  10   5    4.20    0.90
  -2 -10  -6    6.52    1.25
   2  10   6    4.36    0.80
   3   0 -17  245.52    4.20
   3   0 -16    0.19    0.61
   3   0 -15    7.61    1.19
   3   0 -14    0.39    0.67
   3   0 -14    0.14    0.70
   3   0 -14    0.04    0.52
   3   0 -13  752.71   10.44
   3   0 -13  752.97    8.29
   3   0 -13  770.11    8.58
   3   0 -13  783.64   10.91
   3   0 -12    0.50    0.49
   3   0 -12    0.03    0.78
  -3   0  12    0.50    1.30
   3   0 -12    0.30    0.70
   3   0 -12    0.82    0.58
   3   0 -12    0.33    0.65
   3   0 -11  483.82    6.33
   3   0 -11  467.40    7.50
   3   0 -11  482.24    6.78
   3   0 -11  472.55    8.66
   3   0 -11  481.75    8.13
  -3   0  10    0.91    1.04
  -3   0   9   13.07    1.96
  -3   0   8    0.88    0.35
   3   0  -8    0.19    0.59
  -3   0   8    0.26    0.65
  -3   0   7 3227.60   13.00
   3   0  -7 3224.39   21.51
   3   0  -6    0.26    0.23
  -3   0   6    0.45    0.38
   3   0  -6    0.02    0.60
  -3   0   5 9999.00   34.55
   3   0  -5 9978.27   36.97
   3   0  -4    0.04    0.59
   3   0  -4    0.33    0.36
  -3   0   4    0.02    0.51
  -3   0   3  576.64    7.76
   3   0  -3  606.08    7.52
   3   0  -2    0.19    0.51
   3   0  -2    0.40    0.66
   3   0  -1 3538.31    5.38
   3   0  -1 3575.58   19.57
   3   0   0    1.15    0.68
   3   0   0   -0.12    0.50
   3   0   1   -0.25    0.47
   3   0   1  211.00    5.01
   3   0   2    0.08    0.23
   3   0   2    0.08    0.64
   3   0   2   -0.11    0.46
   3   0   3  375.73    6.98
  -3   0  -3  396.75    6.68
  -3   0  -4    0.73    0.60
   3   0   4    0.91    0.93
   3   0   4    0.26    0.57
   3   0   5 3039.22   23.84
   3   0   6    2.20    0.69
  -3   0  -6    0.15    0.45
  -3   0  -6    3.11    0.64
   3   0   6    0.59    0.92
  -3   0  -7 2128.15   13.63
  -3   0  -7 2116.32   15.58
   3   0   8    0.49    0.99
  -3   0  -8    0.39    0.31
  -3   0  -9  127.90    4.38
   3   0   9  124.19    6.60
  -3   0 -10    1.13    0.75
  -3   0 -10    0.22    0.94
   3   0  10   -0.57    1.34
   3   0  10    0.06    1.08
  -3   0 -11  779.10   11.12
   3   0  11  811.53   19.15
  -3   0 -11  754.49   11.73
  -3   0 -11  764.50   12.18
   3   0  11  822.39   19.76
  -3   0 -12    3.29    1.10
  -3   0 -12    0.23    1.22
  -3   0 -13   93.23    4.26
  -3   0 -13   94.47    4.83
  -3   0 -14   -0.29    1.41
  -3   0 -14    0.53    0.97
  -3   0 -15   44.85    3.10
  -3   0 -15   50.02    3.58
  -3   0 -16    0.94    0.94
  -3   0 -17  400.45    7.68
  -3   0 -18   -0.09    0.60
  -3   0 -18    0.30    0.64
   3  -1 -17   13.53    1.22
   3  -1 -16   37.35    2.27
   3  -1 -16   33.75    2.14
   3  -1 -15   41.22    2.58
   3   1 -15   41.57    2.24
   3  -1 -15   39.61    2.52
   3   1 -14   49.72    2.68
   3  -1 -14   43.55    2.02
   3   1 -14   42.00    2.09
   3  -1 -14   43.83    2.78
   3  -1 -14   46.28    2.89
   3  -1 -14   46.04    2.98
   3  -1 -13  123.21    3.44
   3   1 -13  121.98    4.23
   3   1 -13  120.81    3.57
   3  -1 -13  121.35    4.88
   3  -1 -13  119.12    4.47
   3  -1 -12    1.87    0.65
   3   1 -12    1.15    0.64
   3   1 -12    0.87    0.56
   3   1 -12    2.30    0.83
   3  -1 -12    1.91    0.90
  -3   1  12    3.30    1.74
   3  -1 -12    1.14    0.51
   3  -1 -11  243.95    6.08
   3   1 -11  246.47    4.69
   3  -1 -11  254.65    5.02
   3  -1 -11  248.71    5.80
   3  -1 -11  276.28    6.99
   3   1 -11  245.89    4.97
   3   1 -11  272.61    5.97
   3  -1 -11  249.40    4.55
   3  -1 -10   17.69    1.65
  -3   1  10   18.53    2.69
   3  -1 -10   18.72    1.82
   3  -1 -10   15.76    1.69
  -3  -1  10   21.84    2.81
  -3  -1   9  355.99    9.37
   3  -1  -8    5.05    1.19
  -3   1   8    2.01    0.48
  -3  -1   8    1.40    0.92
  -3   1   8    6.41    1.57
  -3  -1   8    1.00    0.48
   3  -1  -7  117.04    2.77
   3  -1  -7  130.63    4.50
  -3   1   7  123.30    4.93
  -3   1   7  113.89    2.62
  -3  -1   7  138.71    4.82
  -3  -1   6   11.24    1.28
   3   1  -6    9.07    1.37
   3  -1  -6    9.15    1.43
  -3   1   6    7.88    0.66
   3  -1  -6    8.04    0.81
  -3   1   6   11.49    1.61
  -3  -1   6    7.63    0.61
   3  -1  -5  151.15    3.68
   3   1  -5  138.19    4.71
   3  -1  -5  144.48    4.93
  -3  -1   5  160.44    4.06
  -3  -1   5  162.21    3.46
  -3   1   5  153.56    2.35
   3  -1  -4   40.02    2.56
  -3  -1   4   39.06    0.97
  -3   1   4   44.49    2.43
  -3  -1   4   38.73    1.84
  -3  -1   4   42.74    2.01
  -3  -1   3  416.23    2.59
   3  -1  -3  432.85    6.60
  -3   1   3  431.23    7.12
  -3  -1   3  424.70    6.38
   3   1  -2   13.62    1.09
  -3  -1   2   13.79    0.52
   3  -1  -2   13.97    0.49
   3  -1  -2   14.60    1.32
   3   1  -2   13.34    1.23
   3  -1  -2   12.66    1.35
  -3   1   2   14.70    1.44
  -3  -1   2   15.35    1.50
   3  -1  -1 1597.63   13.04
   3  -1  -1 1637.48   10.65
  -3   1   1 1613.64   14.18
   3   1  -1 1594.12   11.88
   3   1  -1 1594.54   11.68
   3  -1   0  130.46    3.44
  -3  -1   0  137.99    4.30
   3  -1   0    0.34    0.50
   3  -1   0  126.77    3.56
   3   1   0    0.05    0.34
  -3   1   0   -0.11    0.42
   3  -1   1  994.53   10.55
   3   1   1 1059.90    7.41
  -3  -1  -1    0.04    0.48
   3  -1   1   -0.34    0.55
   3   1   1   -0.08    0.41
   3  -1   1  929.99    8.89
  -3  -1  -2  312.60    3.52
  -3  -1  -2   -0.02    0.49
   3   1   2  272.91    5.45
   3   1   2  307.53    4.90
   3  -1   2  271.43    5.83
   3  -1   2   -0.18    0.45
   3  -1   3    0.02    0.46
   3   1   3   10.99    1.40
  -3  -1  -3    5.86    0.94
   3   1   3    4.35    0.89
   3  -1   3    6.40    1.26
   3  -1   4   16.15    1.86
   3  -1   4   18.36    1.83
   3   1   4   18.02    1.67
   3   1   4   17.92    1.94
  -3  -1  -4   17.37    1.40
   3   1   5 2136.45   19.30
   3  -1   5 2342.86   21.63
   3   1   5 2403.93   21.28
   3  -1   5 2227.83    7.03
  -3   1  -5 2335.17   12.15
   3  -1   5 2408.97   19.82
  -3  -1  -5 2616.54   16.75
   3  -1   5 2301.72    7.71
  -3  -1  -6  430.98    7.45
  -3  -1  -6  448.72    6.90
   3  -1   6  417.27    9.79
  -3   1  -6  444.06    5.68
   3   1   6  417.19    9.48
  -3   1  -6  445.39    6.58
   3  -1   6  443.43    8.30
   3  -1   7   17.93    2.27
  -3   1  -7   19.05    1.32
   3   1   7   16.81    2.19
   3   1   7   18.97    2.38
  -3   1  -7   19.36    1.35
   3  -1   7   16.75    1.61
  -3  -1  -7   17.10    1.37
   3   1   8  846.54   15.82
  -3  -1  -8  835.10   11.77
   3   1   8  861.01   15.34
  -3   1  -8  880.15    9.41
  -3   1  -8  772.61    7.64
   3  -1   8  888.05   16.55
  -3  -1  -8  810.78    8.98
   3   1   9   69.40    4.84
   3   1   9   62.60    4.82
  -3  -1  -9   64.49    3.51
  -3   1  -9   70.90    2.85
  -3  -1  -9   54.83    2.39
  -3  -1 -10  191.97    6.36
   3  -1  10  193.43    8.97
  -3   1 -10  190.97    5.00
  -3  -1 -10  187.36    5.39
   3   1  10  199.04    9.04
  -3   1 -10  187.99    5.73
  -3  -1 -10  170.58    5.96
  -3  -1 -11  111.98    5.14
  -3   1 -11  113.82    4.13
   3   1  11  116.82    7.46
  -3   1 -11  107.09    4.67
  -3  -1 -11  102.37    4.97
   3  -1  11  116.94    7.76
  -3  -1 -12  206.60    7.08
  -3   1 -12  219.90    6.08
  -3  -1 -12  234.64    6.76
  -3   1 -12  232.95    7.03
  -3  -1 -12  223.30    5.59
  -3  -1 -12  225.55    7.37
  -3  -1 -13  134.64    4.41
  -3  -1 -13  135.67    5.42
  -3  -1 -13  151.03    6.25
  -3   1 -13  144.09    5.70
  -3   1 -14  342.23    8.73
  -3  -1 -14  340.28    9.33
  -3  -1 -14  336.82    8.68
  -3  -1 -14  334.52    6.73
  -3  -1 -15   29.97    2.73
  -3   1 -15   38.91    3.18
  -3  -1 -16  128.99    5.01
  -3   1 -16  125.76    4.90
  -3   1 -16  122.86    4.32
  -3   1 -17   15.37    1.53
  -3  -1 -17   16.24    1.80
  -3  -1 -17   17.25    1.88
  -3  -1 -18   36.94    1.93
  -3  -1 -18   44.27    2.29
  -3   1 -18   37.84    1.74
  -3   1 -18   40.49    2.05
   3  -2 -18    2.43    0.53
   3  -2 -17    3.77    0.83
   3  -2 -16   48.94    2.72
   3   2 -15  370.55    5.43
   3  -2 -15  394.30    8.01
   3  -2 -14  123.44    4.82
   3   2 -14  114.17    3.42
   3  -2 -14  115.94    3.16
   3  -2 -14  113.32    4.60
   3   2 -14  120.88    3.27
   3  -2 -13  124.70    4.90
   3   2 -13  118.22    3.66
   3  -2 -13  118.72    4.74
   3  -2 -13  128.27    3.55
   3   2 -13  124.95    3.51
   3  -2 -12  131.42    4.89
   3  -2 -12  137.34    3.76
   3  -2 -12  133.70    5.00
   3  -2 -12  132.00    5.25
   3   2 -12  131.96    3.92
   3   2 -12  142.23    3.71
   3  -2 -11  761.00    8.89
   3  -2 -11  766.48   12.08
   3  -2 -11  744.91   10.86
   3   2 -11  741.48    9.02
   3  -2 -11  756.22   11.18
   3  -2 -11  758.59   12.02
   3  -2 -11  774.53    8.11
   3   2 -11  741.90    8.67
   3   2 -11  771.02    8.31
   3   2 -10  378.50    6.12
   3  -2 -10  427.18    8.90
   3  -2 -10  390.10    7.49
   3  -2 -10  391.73    8.31
   3  -2 -10  410.39    6.53
   3   2 -10  409.78    5.90
  -3   2  10  445.20   12.87
   3   2 -10  385.57    6.42
   3  -2 -10  418.16    7.84
   3  -2  -9 1884.88   18.45
  -3   2   9 2112.74   25.69
   3  -2  -8  480.45    9.45
  -3   2   8  492.59   11.27
  -3  -2   8  484.36    8.28
   3  -2  -7  280.30    7.29
  -3   2   7  280.34    8.01
   3  -2  -7  272.77    5.71
  -3  -2   7  295.42    5.83
  -3   2   7  260.28    4.83
   3  -2  -6  129.65    3.74
   3  -2  -6  120.01    4.80
  -3  -2   6  129.69    3.50
  -3  -2   6  118.76    2.93
  -3   2   6  139.29    5.33
   3  -2  -5  564.77    8.10
  -3  -2   5  572.04    7.04
  -3  -2   5  547.78    6.30
   3  -2  -4  695.44   11.05
  -3  -2   4  730.89    8.28
   3  -2  -3 4295.17   22.47
   3  -2  -3 4097.46   26.47
   3  -2  -2 1240.19    8.03
  -3   2   2 1226.79   12.81
   3   2  -1  117.87    1.97
  -3  -2   1  119.36    3.87
   3  -2   0  682.14    8.41
   3   2   0  687.57    6.38
   3  -2   1 2146.11   17.18
   3  -2   1 2255.40   16.84
   3   2   2 2154.31   13.98
   3  -2   2 1808.39   15.83
  -3   2  -2 2214.13    9.74
   3  -2   2 1936.86   16.70
  -3  -2  -2 2212.48   16.90
  -3  -2  -3 3711.98   22.04
   3  -2   3 3626.99   24.17
  -3   2  -3 3668.83   11.26
   3   2   3 3535.94   20.74
   3  -2   3 3587.06   24.81
  -3  -2  -4 1077.73   11.62
   3   2   4 1040.88   12.17
   3  -2   4  950.50   13.27
  -3   2  -4  945.20    5.22
  -3   2  -4 1021.66    4.43
  -3  -2  -5  128.70    1.28
   3   2   5  141.72    5.08
  -3  -2  -5  138.08    1.61
   3  -2   5  127.50    5.16
   3  -2   5  147.68    5.24
  -3  -2  -5  154.02    4.38
   3   2   6  237.42    7.25
  -3  -2  -6  258.57    6.48
   3  -2   6  293.85    8.09
   3  -2   6  271.91    8.14
  -3  -2  -7  187.88    5.88
   3  -2   7  204.40    6.38
   3   2   7  178.94    6.97
  -3  -2  -7  194.82    5.10
   3  -2   7  205.28    7.62
  -3  -2  -8  413.25    9.12
   3  -2   8  395.36   10.98
  -3  -2  -8  410.47    7.40
  -3   2  -8  416.52    6.08
   3   2   9 2301.17   28.51
  -3  -2  -9 2312.81   17.61
  -3  -2 -10  299.24    7.27
   3   2  10  298.45   11.09
  -3   2 -10  303.81    6.22
  -3  -2 -10  278.30    8.30
  -3  -2 -10  268.08    7.98
  -3  -2 -11  226.27    7.66
  -3   2 -11  233.07    5.74
   3  -2  11  248.31   11.63
   3   2  11  252.37   10.89
  -3  -2 -11  241.80    8.18
  -3   2 -11  241.03    6.92
  -3  -2 -11  240.27    6.89
  -3  -2 -11  223.34    5.99
  -3   2 -12  154.37    4.88
  -3   2 -12  171.21    6.15
  -3  -2 -12  162.61    6.01
  -3  -2 -12  152.63    5.11
  -3  -2 -12  162.56    6.71
  -3  -2 -13  579.15    9.71
  -3   2 -13  582.10    9.67
  -3  -2 -13  630.34   12.06
  -3  -2 -13  604.45   12.73
  -3  -2 -13  583.85    9.67
  -3   2 -13  639.92   11.86
  -3   2 -14  113.79    4.38
  -3   2 -14  121.54    5.27
  -3  -2 -14  111.13    4.23
  -3  -2 -14  122.39    5.57
  -3   2 -15  317.03    6.74
  -3  -2 -15  344.22    8.80
  -3   2 -15  336.99    8.11
  -3  -2 -15  332.39    6.64
  -3  -2 -16    5.46    1.43
  -3   2 -16    5.08    1.00
  -3  -2 -16    6.05    1.50
  -3   2 -16    5.55    1.42
  -3  -2 -16    6.77    1.02
  -3   2 -17    2.57    0.68
  -3  -2 -17    2.60    1.11
  -3  -2 -17    1.86    0.95
  -3   2 -18    0.47    0.57
  -3  -2 -18    0.51    0.73
   3  -3 -18    0.23    0.35
   3  -3 -17    0.68    0.59
   3  -3 -16    3.16    0.93
   3  -3 -16    3.17    0.99
   3  -3 -15   35.90    2.58
   3   3 -15   31.59    1.62
   3   3 -15   31.03    1.61
   3  -3 -15   35.85    2.62
   3  -3 -14   33.26    2.82
   3  -3 -14   33.55    2.67
   3   3 -14   32.21    1.90
   3   3 -14   33.74    1.86
   3  -3 -13  151.86    5.55
   3   3 -13  148.21    4.18
   3  -3 -13  148.79    5.80
   3  -3 -13  154.68    3.93
   3   3 -13  155.71    4.05
   3  -3 -13  150.10    5.60
   3  -3 -12    5.82    1.39
   3   3 -12    6.60    1.10
   3  -3 -12    6.34    1.43
   3  -3 -12    6.32    1.59
   3  -3 -12    5.73    0.98
   3   3 -12    5.06    0.92
   3  -3 -11   43.42    3.10
   3  -3 -11   39.95    2.91
   3  -3 -11   42.32    2.89
   3  -3 -11   41.93    3.18
   3   3 -11   41.93    2.39
   3  -3 -11   41.85    2.26
   3   3 -11   40.42    2.15
   3  -3 -10   29.47    1.73
   3  -3 -10   28.56    2.39
   3  -3 -10   27.92    2.52
   3   3 -10   28.31    1.99
   3  -3 -10   28.28    2.43
  -3   3  10   33.19    3.96
   3   3 -10   25.88    1.69
   3  -3 -10   32.62    2.44
   3  -3  -9   41.64    3.06
   3  -3  -9   45.84    2.74
   3  -3  -9   48.58    2.82
   3  -3  -9   48.04    3.01
  -3   3   9   49.28    4.44
   3  -3  -8    1.27    0.59
  -3   3   8    0.30    0.96
  -3   3   7   30.91    3.06
   3  -3  -7   24.05    1.95
   3  -3  -7   24.03    2.38
   3  -3  -6  119.30    4.31
  -3   3   6  124.02    5.36
   3  -3  -6  110.49    4.83
  -3  -3   6  104.98    3.65
   3  -3  -5  147.54    5.80
  -3  -3   5  145.12    4.43
   3  -3  -5  156.36    4.86
   3  -3  -4   55.51    2.93
   3  -3  -4   51.77    3.46
  -3   3   4   58.63    3.28
  -3  -3   4   53.93    2.69
   3  -3  -3   56.83    2.95
  -3  -3   3   59.69    2.93
  -3   3   3   57.32    3.13
   3  -3  -2   10.09    0.85
  -3   3   2   12.02    1.45
  -3  -3   2    9.39    1.31
   3  -3  -2    7.97    1.21
  -3   3   1   28.76    2.20
   3  -3  -1   26.66    1.63
  -3  -3   1   28.61    2.16
   3  -3  -1   26.68    2.10
  -3  -3   0   10.90    1.45
  -3   3   0   11.51    1.41
   3  -3   0    9.84    1.39
  -3  -3  -1  901.85   12.04
   3  -3   1  868.24   12.18
   3  -3   2  110.95    4.48
   3  -3   2  111.05    4.17
  -3  -3  -2  108.15    4.28
   3   3   2  123.50    3.83
   3  -3   3   52.24    3.18
   3   3   3   51.69    2.76
   3  -3   3   47.31    3.01
  -3  -3  -3   49.31    2.93
  -3  -3  -4   60.98    3.26
   3  -3   4   54.78    3.37
  -3  -3  -5    9.78    1.42
   3  -3   5    9.08    1.65
   3   3   5   11.33    1.73
   3  -3   5   13.55    1.97
  -3  -3  -5    8.65    1.50
   3   3   6   15.06    2.20
  -3  -3  -6   15.63    1.89
  -3  -3  -6   15.53    1.03
   3  -3   6   15.91    2.22
   3  -3   6   22.13    2.49
   3   3   7   56.60    4.35
   3  -3   7   67.33    4.62
  -3  -3  -7   68.14    3.92
   3  -3   7   77.14    4.80
  -3  -3  -7   65.82    3.37
  -3  -3  -8  189.88    6.93
   3  -3   8  198.80    8.53
  -3  -3  -8  186.20    5.81
  -3  -3  -9    9.79    1.40
  -3  -3  -9   10.75    1.96
   3  -3   9    9.76    2.26
   3   3   9    8.79    2.38
  -3   3  -9   10.68    1.20
  -3  -3  -9   10.42    1.97
  -3   3 -10  243.69    5.30
  -3  -3 -10  249.86    7.23
  -3  -3 -10  241.25    6.70
  -3  -3 -10  220.11    8.07
  -3  -3 -10  248.60    8.66
   3  -3  10  254.64   11.46
   3   3  10  251.89   10.78
  -3   3 -11   57.47    2.88
  -3  -3 -11   53.85    3.68
  -3  -3 -11   58.51    4.40
  -3  -3 -11   53.21    3.34
  -3   3 -12   19.64    1.80
  -3  -3 -12   15.40    2.60
  -3  -3 -12   21.41    2.22
  -3  -3 -12   20.56    2.52
  -3   3 -12   17.19    2.34
  -3  -3 -13  307.65    9.56
  -3  -3 -13  309.51    7.67
  -3   3 -13  295.83    6.58
  -3  -3 -13  295.98    8.74
  -3   3 -13  325.86    8.63
  -3   3 -14   11.44    1.42
  -3  -3 -14   12.01    2.13
  -3   3 -14   10.80    1.91
  -3  -3 -14   10.84    1.61
  -3  -3 -14    9.88    1.58
  -3  -3 -15    6.30    1.69
  -3   3 -15    7.80    1.12
  -3   3 -15    7.94    1.62
  -3  -3 -15    7.12    1.73
  -3  -3 -15    7.61    1.25
  -3  -3 -15    9.34    1.36
  -3   3 -16   32.43    1.72
  -3  -3 -16   40.62    2.23
  -3  -3 -16   40.36    2.94
  -3   3 -16   39.05    2.56
  -3   3 -17   19.79    1.65
  -3  -3 -17   25.52    2.14
  -3  -3 -17   23.87    1.35
  -3  -3 -18   18.94    1.47
  -3   3 -18   12.40    0.96
   3  -4 -17  100.07    2.86
   3  -4 -16  123.21    3.92
   3  -4 -16  124.58    3.88
   3  -4 -15    3.77    1.09
   3  -4 -15    2.63    1.08
   3  -4 -15    2.27    1.07
   3   4 -15    3.00    0.66
   3  -4 -14   67.98    3.85
   3  -4 -14   70.42    3.69
   3  -4 -14   63.82    3.68
   3   4 -14   61.22    2.55
   3   4 -14   64.81    2.51
   3  -4 -13  137.92    3.67
   3   4 -13  131.48    3.99
   3  -4 -13  153.56    5.51
   3  -4 -13  136.22    5.66
   3  -4 -13  144.59    5.73
   3   4 -13  144.34    4.03
   3   4 -12   86.46    3.41
   3  -4 -12   91.20    4.40
   3  -4 -12   84.41    4.52
   3  -4 -12   89.19    3.26
   3  -4 -12   85.65    4.72
   3  -4 -11   51.71    3.47
   3  -4 -11   48.15    2.56
   3   4 -11   52.72    2.77
   3  -4 -11   45.15    3.41
   3  -4 -11   52.61    3.29
   3   4 -11   47.66    2.48
   3  -4 -10  123.02    3.60
   3  -4 -10  124.34    4.85
   3  -4 -10  110.63    4.95
   3   4 -10  113.34    3.65
   3  -4  -9   23.32    1.69
   3  -4  -9   25.05    2.17
   3   4  -9   22.10    1.62
   3   4  -9   24.89    1.98
   3  -4  -9   24.71    2.43
  -3   4   9   27.52    3.43
   3  -4  -9   23.59    2.29
   3  -4  -8  486.04    9.51
   3  -4  -8  484.27    8.54
   3  -4  -8  499.29    9.45
   3   4  -8  505.60    8.26
  -3   4   8  480.97   12.72
   3  -4  -8  496.08    9.89
   3   4  -8  487.14    6.91
   3  -4  -7  780.03   12.59
   3  -4  -7  757.41   11.23
   3   4  -7  775.57    9.92
   3  -4  -7  725.73   13.66
   3  -4  -7  734.34   10.99
  -3   4   7  732.66   14.47
   3   4  -7  731.39    8.12
   3  -4  -6  396.25   10.25
  -3   4   6  421.80   10.41
   3  -4  -6  406.90    9.10
  -3  -4   5  480.15    9.97
   3  -4  -5  479.43    9.73
  -3   4   4  155.67    5.73
  -3  -4   4  146.25    5.34
   3  -4  -4  158.07    5.66
   3  -4  -3   34.25    2.73
  -3   4   3   33.63    2.62
  -3  -4   3   36.26    2.81
  -3   4   2 1044.77   13.86
   3  -4  -2 1087.49    8.69
   3  -4  -2 1067.81   14.80
  -3   4   1 2501.34   20.95
  -3  -4   1 2491.66   23.49
   3  -4  -1 2539.02   16.58
  -3  -4   0  753.16   12.68
   3  -4   0  759.83   12.38
  -3  -4  -1  204.45    6.66
   3  -4   1  194.14    5.58
   3  -4   1  198.77    6.44
   3  -4   2  120.40    4.72
  -3  -4  -2  131.67    5.35
   3   4   2  132.83    4.65
   3  -4   2  129.04    5.39
   3   4   3   73.70    3.77
   3  -4   3   69.47    4.18
  -3  -4  -3   66.66    3.88
  -3  -4  -4  877.62   14.07
   3  -4   4  954.05   15.71
   3  -4   4  888.53   14.42
   3   4   4  951.17   14.44
  -3  -4  -4  945.50   14.70
  -3  -4  -5  880.96   14.46
  -3  -4  -5  913.78   14.64
   3  -4   5  915.65   15.66
  -3  -4  -6 1114.14   16.82
   3   4   6 1166.70   18.64
   3  -4   6 1158.48   18.61
  -3   4  -7  402.60    6.33
   3   4   7  341.19   11.14
   3  -4   7  381.77   11.61
   3  -4   7  417.31   11.90
  -3  -4  -7  363.09    9.09
  -3  -4  -7  313.50    9.78
  -3  -4  -7  380.39   10.41
  -3   4  -8  417.80    6.82
  -3  -4  -8  382.09    8.16
   3  -4   8  414.91   13.08
  -3  -4  -8  418.50   11.34
  -3  -4  -8  406.52    7.48
  -3  -4  -8  393.24    9.20
  -3  -4  -8  370.34    9.36
   3  -4   9    8.59    2.44
  -3  -4  -9    6.44    1.26
  -3  -4  -9    8.71    1.93
  -3   4  -9   12.09    1.37
   3   4   9    6.62    2.30
  -3  -4  -9    5.25    1.98
  -3  -4  -9    7.50    1.71
  -3  -4  -9    8.18    1.20
  -3  -4  -9    8.60    1.54
  -3   4 -10  207.60    5.27
  -3  -4 -10  188.50    7.01
  -3  -4 -10  207.91    6.82
  -3  -4 -10  181.51    8.08
  -3   4 -11  429.15    7.42
  -3  -4 -11  389.73   11.67
  -3  -4 -12   65.55    3.99
  -3   4 -12   62.47    2.87
  -3  -4 -12   60.02    4.20
  -3  -4 -12   64.19    4.88
  -3   4 -13   19.96    2.38
  -3   4 -13   21.51    1.74
  -3  -4 -13   20.87    2.63
  -3  -4 -13   20.63    2.33
  -3  -4 -13   19.68    2.20
  -3  -4 -14   16.44    2.39
  -3   4 -14   17.20    1.43
  -3   4 -14   17.25    2.08
  -3  -4 -14   16.10    1.97
  -3  -4 -14   18.06    2.02
  -3   4 -15    5.17    1.34
  -3  -4 -15    4.98    1.16
  -3  -4 -15    5.41    1.56
  -3  -4 -16  124.51    3.82
  -3  -4 -16  129.25    4.76
  -3   4 -17   83.99    2.66
  -3  -4 -17   85.17    2.37
   3  -5 -17   19.30    1.10
   3  -5 -16    1.27    0.65
   3   5 -15    0.63    0.46
   3  -5 -15    1.40    0.77
   3  -5 -15   -0.04    0.82
   3  -5 -14   42.71    3.01
   3  -5 -14   39.41    2.79
   3  -5 -14   40.13    2.66
   3  -5 -13    5.96    1.60
   3  -5 -13    5.25    1.30
   3  -5 -13    5.61    1.62
   3  -5 -13    7.19    0.93
   3   5 -13    5.70    0.97
   3  -5 -12   37.38    3.16
   3   5 -12   37.08    2.32
   3  -5 -12   39.46    2.83
   3  -5 -12   38.24    2.14
   3  -5 -12   38.73    3.37
   3   5 -12   38.05    2.23
   3  -5 -11  111.74    5.56
   3  -5 -11  107.25    4.61
   3  -5 -11  109.10    5.20
   3   5 -11  100.44    3.68
   3  -5 -10   38.26    3.20
   3   5 -10   39.09    2.64
   3  -5 -10   42.45    2.23
   3  -5 -10   37.71    3.35
   3  -5 -10   37.18    2.77
   3   5 -10   37.41    2.29
   3   5  -9   35.22    2.51
   3   5  -9   30.86    2.11
   3  -5  -9   33.66    3.12
   3  -5  -9   33.43    2.98
   3  -5  -8   69.18    4.10
   3  -5  -8   73.23    3.52
   3  -5  -8   62.65    4.51
   3  -5  -8   65.11    3.83
  -3   5   8   76.05    3.75
   3   5  -8   72.11    3.48
   3  -5  -8   65.95    3.15
   3   5  -8   72.15    2.95
   3  -5  -8   72.68    4.37
   3   5  -7   37.16    2.53
   3  -5  -7   37.94    3.04
  -3   5   7   41.63    2.71
   3  -5  -7   33.59    2.68
  -3   5   7   33.40    3.51
   3  -5  -7   33.35    2.27
   3  -5  -7   42.66    2.59
   3   5  -7   35.09    2.09
   3  -5  -7   34.76    3.10
   3  -5  -6   16.82    2.15
   3   5  -6   20.55    1.88
   3  -5  -6   15.31    2.38
  -3   5   6   19.25    1.79
   3  -5  -6   16.29    1.88
   3  -5  -6   15.64    1.62
   3   5  -6   16.24    1.38
   3  -5  -6   16.44    2.21
   3  -5  -6   15.26    1.53
  -3  -5   5   57.11    4.21
   3   5  -5   64.39    2.71
   3  -5  -5   66.18    4.80
   3  -5  -5   68.92    4.32
   3  -5  -5   60.11    3.75
   3   5  -5   66.40    2.59
   3  -5  -5   65.13    3.15
   3   5  -5   61.79    3.05
   3  -5  -4   29.60    2.83
  -3  -5   4   27.64    2.97
  -3   5   3   69.97    4.11
   3  -5  -3   71.20    4.34
  -3  -5   3   62.36    4.42
  -3   5   2   37.49    2.98
   3  -5  -2   38.76    3.24
  -3  -5   2   31.61    3.16
   3  -5  -1  130.01    5.99
   3  -5  -1  145.50    4.28
  -3   5   1  139.39    5.33
  -3  -5   1  134.04    6.29
   3  -5   0   26.74    2.16
   3  -5   0   24.80    2.66
  -3  -5   0   22.21    2.66
   3  -5   1    2.31    0.82
   3  -5   1    2.90    1.06
  -3  -5  -1    2.88    1.21
  -3  -5  -2    1.50    1.08
   3  -5   2    2.39    0.92
   3  -5   2    2.09    1.08
  -3  -5  -2    1.62    0.95
   3  -5   3  425.91   10.13
  -3  -5  -3  421.84   11.28
   3  -5   4  215.07    8.49
   3  -5   4  185.17    7.06
   3   5   4  222.08    6.10
  -3  -5  -4  180.17    7.41
  -3  -5  -5  191.49    7.48
  -3  -5  -5  201.54    6.55
   3  -5   5  202.65    8.44
   3   5   5  215.36    8.55
  -3  -5  -5  203.78    5.93
  -3   5  -6   61.20    2.67
  -3  -5  -6   59.29    4.39
   3  -5   6   56.46    4.56
   3   5   6   64.39    5.20
  -3   5  -7    7.92    1.18
  -3  -5  -7    7.84    1.85
  -3  -5  -7    7.45    1.31
  -3  -5  -7   16.07    2.30
   3   5   7   14.34    2.91
  -3  -5  -7    8.55    1.51
   3  -5   7    7.38    2.02
  -3  -5  -7    5.02    1.48
  -3   5  -8   16.81    1.62
  -3  -5  -8   12.96    2.20
  -3  -5  -8   13.81    1.69
  -3  -5  -8   16.05    2.37
  -3  -5  -8   13.41    1.85
  -3   5  -9  166.02    4.79
  -3  -5  -9  139.52    6.47
  -3  -5  -9  158.37    5.20
  -3  -5  -9  147.23    5.45
  -3  -5 -10    1.10    0.78
  -3   5 -10    0.64    0.62
  -3  -5 -10    0.27    1.25
  -3  -5 -10    0.16    1.18
  -3  -5 -10    2.01    1.01
  -3  -5 -11  178.06    7.30
  -3  -5 -11  201.96    7.34
  -3  -5 -12   91.03    4.86
  -3  -5 -12   95.18    4.73
  -3  -5 -12   79.81    4.87
  -3   5 -13    8.62    1.71
  -3  -5 -13   10.05    1.76
  -3   5 -14   22.66    2.07
  -3  -5 -14   24.79    2.24
  -3  -5 -14   23.08    2.25
  -3  -5 -15  102.89    3.82
  -3  -5 -15   98.55    3.62
  -3  -5 -15  107.90    4.50
  -3   5 -16    2.93    0.81
  -3  -5 -16    4.29    0.90
  -3  -5 -16    2.43    0.65
  -3  -5 -16    4.67    1.09
   3  -6 -15   20.71    1.55
   3  -6 -15   20.64    1.40
   3  -6 -14  197.91    4.74
   3  -6 -14  190.27    5.17
   3  -6 -13    6.93    1.21
   3  -6 -13    7.24    1.42
   3   6 -13    6.60    0.98
   3  -6 -12  163.06    5.75
   3  -6 -12  162.39    5.15
   3   6 -12  171.42    4.35
   3   6 -11    0.95    0.92
   3  -6 -11    0.55    1.24
   3  -6 -10  488.57   10.44
   3  -6 -10  486.81    9.28
   3   6 -10  489.47    8.37
   3  -6  -9  100.16    3.70
   3  -6  -9   81.69    3.87
   3  -6  -9   82.82    3.51
  -3   6   9   95.62    4.43
   3   6  -9   87.43    3.57
   3  -6  -8  551.38    9.59
   3  -6  -8  560.87    9.55
   3  -6  -8  572.47   11.03
   3   6  -8  583.44    8.81
   3   6  -7    0.32    0.71
   3   6  -7    2.36    1.17
   3  -6  -7   -0.05    0.71
   3  -6  -7    0.24    0.74
  -3   6   7    0.28    0.81
   3  -6  -6  179.81    5.18
   3   6  -6  175.80    4.69
   3  -6  -6  174.84    5.76
   3  -6  -6  168.21    5.48
   3  -6  -5   38.28    4.12
   3  -6  -5   37.33    2.68
   3  -6  -5   37.56    2.36
  -3   6   5   38.24    3.90
   3  -6  -5   38.37    3.57
  -3  -6   4  266.31   10.73
  -3  -6   4  306.92    8.56
  -3   6   4  344.21   10.93
   3  -6  -4  343.28    7.46
  -3   6   4  365.09    7.33
   3  -6  -4  306.44    7.46
   3  -6  -4  316.04    9.98
  -3  -6   4  283.10    8.96
   3   6  -4  340.87    6.26
  -3   6   3  150.40    6.60
  -3   6   3  145.01    4.58
  -3  -6   3  128.52    5.59
   3  -6  -3  134.93    4.94
  -3  -6   3  124.18    5.92
   3  -6  -3  139.40    6.73
   3   6  -3  143.74    4.00
  -3  -6   3  124.51    7.27
   3   6  -2  798.71    9.87
  -3  -6   2  746.08   13.20
  -3   6   2  841.25   10.57
   3  -6  -2  768.97   11.71
  -3  -6   2  740.78   14.21
   3  -6  -2  770.23   15.70
  -3   6   2  838.93   14.53
   3   6  -2  823.04    9.33
  -3  -6   2  728.00   17.57
  -3  -6   1   67.64    4.47
   3   6  -1   74.13    3.03
  -3   6   1   70.84    3.12
   3  -6  -1   65.52    3.54
   3  -6  -1   70.74    4.82
   3   6  -1   79.30    2.86
  -3  -6   0  994.40   17.09
  -3  -6   0 1012.06   15.59
  -3  -6   0  995.65   20.89
  -3   6   0 1028.27   11.26
   3  -6   0  976.27   13.48
   3  -6   0  988.83   18.15
   3  -6   1    1.40    0.93
  -3  -6  -1    0.94    1.21
  -3  -6  -1    3.50    1.29
   3  -6   1    0.72    1.03
  -3   6  -1    0.59    0.66
  -3  -6  -1    1.70    1.25
  -3  -6  -2 1041.69   18.04
   3  -6   2 1070.43   16.64
  -3   6  -2 1060.10   11.16
  -3  -6  -2 1049.71   15.67
  -3  -6  -2 1044.62   21.22
  -3   6  -3   74.69    2.98
   3  -6   3   98.84    6.19
  -3  -6  -3   75.63    5.08
   3  -6   3   90.98    5.24
   3  -6   3   86.08    4.32
  -3  -6  -3   89.74    5.14
  -3  -6  -3   81.56    4.53
  -3  -6  -3   77.03    5.86
  -3  -6  -4  602.88   11.97
  -3  -6  -4  583.66   14.26
   3  -6   4  633.28   11.84
   3  -6   4  655.31   16.26
  -3   6  -4  600.63    8.35
  -3  -6  -4  638.31   13.46
   3  -6   4  593.01   13.94
  -3  -6  -4  577.32   15.66
  -3   6  -5    0.64    0.70
   3  -6   5    0.52    1.08
  -3  -6  -5    0.26    1.07
  -3  -6  -5   -0.04    0.89
   3  -6   5    0.98    1.05
  -3   6  -5    1.20    0.65
  -3  -6  -5    0.13    1.08
  -3  -6  -5    2.96    1.36
  -3  -6  -6  264.07    7.77
  -3   6  -6  247.89    5.49
  -3  -6  -6  269.63    8.62
  -3   6  -7    6.26    1.14
  -3  -6  -8  417.90   10.23
  -3  -6  -8  433.19    9.43
  -3  -6  -9   32.06    2.85
  -3  -6  -9   36.00    3.58
  -3  -6  -9   35.17    2.73
  -3  -6 -10  241.05    8.76
  -3  -6 -10  283.98    6.87
  -3  -6 -10  235.49    6.93
  -3  -6 -10  297.81    9.23
  -3  -6 -11   75.00    4.64
  -3  -6 -11   70.35    4.70
  -3  -6 -12  155.47    6.39
  -3  -6 -12  155.37    5.80
  -3  -6 -12  154.68    6.15
  -3   6 -13    1.08    0.98
  -3  -6 -13    1.60    1.14
  -3  -6 -13    1.11    1.21
  -3  -6 -13    1.31    1.22
  -3  -6 -14  223.04    6.07
  -3  -6 -14  210.87    5.66
  -3  -6 -14  220.62    5.63
  -3  -6 -15   11.75    1.28
  -3  -6 -15   14.78    1.43
  -3   6 -15   11.14    1.10
  -3  -6 -15   12.77    1.33
   3   7 -14   18.50    1.00
   3  -7 -14   19.10    1.10
   3  -7 -14   20.52    1.35
   3   7 -13   26.22    1.40
   3  -7 -13   27.17    1.64
   3  -7 -13   27.93    1.88
   3  -7 -12    6.85    1.07
   3  -7 -12    7.71    1.32
   3   7 -12    6.95    0.97
   3   7 -11    1.92    0.81
   3  -7 -11    2.19    0.73
   3  -7 -11    1.25    0.75
   3  -7 -10   41.50    2.47
   3   7 -10   36.68    2.24
   3  -7  -9   11.96    1.29
  -3   7   9   10.05    1.61
   3  -7  -9    9.24    1.38
   3  -7  -9    8.46    1.22
   3  -7  -9    8.82    1.61
   3   7  -9    8.37    1.34
   3  -7  -8    9.79    1.69
  -3   7   8    8.12    1.51
   3  -7  -8    7.62    1.32
   3  -7  -8    7.63    1.33
   3   7  -8    6.92    1.25
   3  -7  -7   53.32    2.90
   3  -7  -7   56.09    3.39
   3  -7  -7   48.84    3.10
  -3   7   7   56.57    3.33
   3   7  -7   49.91    2.79
   3  -7  -6    2.31    1.08
  -3   7   6    7.45    1.41
  -3   7   5  122.85    4.77
   3  -7  -5  111.98    4.53
   3  -7  -5  111.48    4.82
  -3  -7   5  104.17    5.61
   3   7  -5  115.35    3.99
  -3  -7   4    4.67    1.56
   3  -7  -4    2.72    1.21
   3   7  -4    3.05    0.95
  -3  -7   4    3.64    1.69
  -3   7   4    4.89    1.26
  -3  -7   3   79.19    5.51
  -3   7   3   88.82    3.91
  -3  -7   3   73.63    4.82
   3  -7  -3   72.10    4.12
   3   7  -3   79.93    3.21
  -3  -7   2   49.15    4.37
  -3  -7   2   43.81    3.89
  -3   7   2   49.98    2.93
   3  -7  -2   44.98    3.30
   3   7  -2   52.77    2.55
  -3   7   1    6.70    1.22
   3  -7  -1    5.51    1.47
  -3   7   0   16.28    1.71
  -3  -7   0   15.23    2.48
   3  -7   0   17.15    2.23
  -3  -7   0   18.37    2.97
  -3  -7  -1  129.99    6.58
  -3   7  -1  111.43    4.07
   3  -7   1  120.27    5.31
  -3  -7  -1  134.24    7.19
   3  -7   2   37.77    3.13
  -3  -7  -2   42.70    3.89
  -3   7  -2   41.91    2.45
  -3  -7  -2   49.35    4.47
   3  -7   3   29.33    2.88
  -3  -7  -3   27.54    3.22
  -3   7  -3   26.42    2.00
  -3  -7  -3   27.76    3.60
   3  -7   4    1.18    1.13
  -3  -7  -4    1.71    1.27
  -3   7  -4    1.20    0.69
  -3  -7  -4    2.54    1.70
  -3   7  -5   20.84    1.75
   3  -7   5   24.50    2.72
  -3  -7  -5   20.80    2.76
  -3  -7  -5   21.94    3.03
  -3  -7  -6    3.18    1.46
   3  -7   6    4.33    1.50
  -3   7  -6    1.79    0.74
  -3  -7  -6    4.38    1.83
  -3  -7  -7  286.04    8.52
  -3  -7  -8   38.77    3.79
  -3  -7  -8   32.94    2.87
  -3  -7  -8   33.41    3.12
  -3  -7  -9   67.10    3.98
  -3  -7  -9   82.56    5.11
  -3  -7  -9   78.59    4.00
  -3  -7 -10    9.98    1.73
  -3  -7 -10   11.10    1.50
  -3  -7 -10   13.70    2.33
  -3  -7 -11   15.07    1.95
  -3  -7 -11   14.91    2.36
  -3  -7 -11   15.12    1.92
  -3  -7 -12    7.51    1.67
  -3  -7 -12    6.24    1.40
  -3  -7 -13  119.41    4.26
  -3  -7 -13  118.56    4.01
  -3   7 -14   18.97    1.20
  -3  -7 -14   23.25    1.64
  -3  -7 -14   23.42    1.60
   3   8 -12  142.77    2.83
   3   8 -11   11.02    1.03
   3  -8 -11   11.98    1.24
   3  -8 -10   31.28    2.03
   3   8 -10   32.84    1.79
   3  -8  -9   70.34    3.15
   3  -8  -9   63.68    2.57
  -3   8   9   75.24    3.26
   3   8  -9   62.19    2.60
   3  -8  -8   63.53    2.58
  -3   8   8   60.71    3.26
   3  -8  -8   51.92    2.86
   3  -8  -8   46.68    2.57
  -3   8   7   48.18    2.99
   3  -8  -7   47.28    2.78
   3  -8  -7   39.17    2.62
   3   8  -7   41.94    2.39
   3  -8  -6  541.89    8.91
   3   8  -6  483.18    7.68
   3  -8  -5   86.55    4.29
  -3   8   5  100.14    4.28
   3   8  -5   90.91    3.47
   3  -8  -4  345.26    8.77
  -3  -8   4  370.25   10.98
  -3   8   4  365.27    7.94
   3   8  -4  336.39    5.83
   3   8  -4  344.08    6.65
  -3   8   3  235.24    6.42
  -3  -8   3  235.10    9.13
   3  -8  -3  224.13    7.31
  -3  -8   3  219.09    9.65
   3   8  -3  239.96    5.38
  -3  -8   2  150.39    7.46
  -3   8   2  148.29    5.13
   3  -8  -2  139.74    6.16
  -3  -8   2  144.40    7.99
   3  -8  -1    2.47    1.49
  -3   8   1    2.01    1.11
  -3  -8   0  355.88   11.68
  -3   8   0  326.61    7.30
   3  -8   0  347.98    9.54
  -3  -8   0  349.03   12.60
  -3  -8  -1    6.30    2.18
   3  -8   1    4.50    1.60
  -3   8  -1    4.38    1.14
  -3  -8  -1    6.12    2.51
  -3  -8  -2  145.81    7.56
  -3   8  -2  124.36    4.38
  -3  -8  -2  149.18    8.37
   3  -8   3  184.37    6.99
  -3  -8  -3  184.69    8.30
  -3  -8  -3  186.70    9.23
  -3  -8  -4  146.06    7.32
   3  -8   4  167.69    6.64
  -3  -8  -4  160.39    8.10
  -3  -8  -5   63.40    4.62
  -3   8  -5   60.59    2.74
  -3  -8  -5   69.31    5.29
  -3  -8  -6  467.70   11.56
  -3  -8  -6  488.95   12.03
  -3  -8  -6  460.96   12.39
  -3  -8  -7    4.58    1.85
  -3  -8  -7    4.83    1.56
  -3  -8  -7    3.92    1.29
  -3  -8  -7    4.56    1.83
  -3  -8  -8  109.73    4.66
  -3  -8  -8  124.16    5.85
  -3  -8  -9   65.18    3.32
  -3  -8  -9   60.07    3.96
  -3  -8  -9   57.79    3.29
   3   8   9   55.64    2.72
  -3  -8 -10   87.06    3.17
  -3  -8 -10   90.85    4.45
  -3  -8 -10   83.32    3.65
  -3  -8 -11    3.30    1.29
  -3   8 -12   85.41    2.49
  -3  -8 -12  111.43    3.77
   3   9  -9    3.44    0.57
   3   9  -8    0.32    0.48
   3  -9  -8    0.52    0.53
  -3   9   8    0.44    0.58
   3   9  -7    7.87    0.90
   3  -9  -7    9.21    1.21
  -3   9   7   10.05    1.33
   3   9  -6    6.57    0.89
   3  -9  -6    7.87    1.26
   3   9  -5    6.72    0.88
  -3   9   5    9.45    1.44
   3  -9  -5    7.28    1.40
  -3   9   4   14.24    1.69
   3   9  -4   11.92    1.01
  -3  -9   4   16.22    2.40
   3  -9  -4   15.37    1.95
   3  -9  -3    0.97    1.13
  -3  -9   3    1.36    1.50
   3   9  -3    0.40    0.56
  -3   9   3    0.63    0.94
  -3   9   2   49.59    2.96
   3  -9  -2   51.99    3.55
   3   9  -2   51.63    2.44
  -3  -9   1   17.35    2.96
  -3   9   1   14.40    1.67
   3  -9  -1   15.84    2.25
  -3  -9   0   12.70    2.71
   3   9   0   11.07    1.45
  -3   9   0   13.18    1.56
   3  -9   0   12.56    2.05
  -3  -9  -1   10.05    2.51
  -3  -9  -1    8.11    1.96
  -3   9  -1    8.87    1.33
   3  -9   1   11.45    1.90
  -3  -9  -2    4.50    2.05
  -3  -9  -2    5.50    1.74
  -3   9  -3   19.67    1.64
   3  -9   3   28.12    2.74
  -3  -9  -3   23.55    2.81
  -3  -9  -3   25.38    3.36
  -3  -9  -4   22.40    2.99
  -3   9  -4   18.41    1.47
   3  -9   4   27.96    2.70
  -3  -9  -4   23.75    2.79
  -3  -9  -5   41.70    3.59
  -3  -9  -5   38.38    3.33
   3   9   5   36.44    2.46
  -3   9  -5   32.20    1.68
  -3  -9  -6    6.20    1.67
   3   9   6    4.16    1.08
  -3  -9  -6    4.37    1.60
  -3  -9  -7    0.69    0.98
   3   9   7    0.59    0.77
  -3  -9  -7    0.53    1.17
   3   9   8    7.19    1.07
  -3  -9  -8    8.20    1.33
  -3  -9  -9    2.73    1.05
  -3   9 -10   48.46    1.63
  -3  10   5   59.88    2.38
   3 -10  -5   65.72    2.68
  -3  10   4   58.86    2.54
   3 -10  -4   67.63    3.07
   3 -10  -3   63.82    3.18
  -3  10   3   62.01    2.66
  -3  10   2   12.88    1.38
   3 -10  -2   13.48    1.71
   3  10  -2    8.83    0.80
   3  10  -1  110.97    2.94
  -3  10   1  114.55    3.57
  -3  10   0    7.85    1.14
   3 -10   0   13.41    1.87
  -3  10  -1   88.04    2.94
   3  10   1   83.59    2.94
   3  10   2  136.30    3.81
  -3  10  -2  136.47    3.37
   3  10   3   48.02    2.33
  -3  10  -3   44.17    1.72
   3  10   4   46.39    2.25
  -3 -10  -4   61.87    3.87
   3  10   5   23.36    1.54
  -3 -10  -5   32.88    2.56
  -3 -10  -6   12.08    1.42
   3  10   6    6.92    0.81
   4   0 -17    0.11    0.40
   4   0 -16   23.25    1.67
   4   0 -15   -0.04    0.49
   4   0 -15    2.42    0.86
   4   0 -14  187.70    4.13
   4   0 -14  182.64    5.31
   4   0 -14  174.41    4.22
   4   0 -13    1.10    0.73
   4   0 -13    3.06    0.77
   4   0 -12 1162.73   13.49
   4   0 -12 1168.19   10.69
   4   0 -12 1145.23   11.20
   4   0 -11    1.36    0.63
   4   0 -11    0.30    0.66
   4   0 -11    0.31    0.63
  -4   0  11    1.68    1.40
   4   0 -10  737.88    8.40
   4   0 -10  749.25    9.02
   4   0  -9    0.33    0.64
  -4   0   9    3.83    1.31
   4   0  -8   13.33    1.62
  -4   0   8   15.01    2.07
  -4   0   7    0.41    0.35
   4   0  -7    0.74    0.71
   4   0  -7    0.46    0.24
  -4   0   7    0.52    0.79
  -4   0   6 1275.97   13.35
  -4   0   6 1302.42   15.20
  -4   0   5    0.37    0.68
   4   0  -5    0.10    0.35
   4   0  -5    0.07    0.63
   4   0  -4 1432.01   14.55
  -4   0   4 1484.04   17.09
   4   0  -3    0.45    0.50
   4   0  -3    0.46    0.65
  -4   0   3    0.10    0.67
   4   0  -2  718.89    9.38
  -4   0   2  763.32   10.59
   4   0  -1    3.44    0.18
   4   0  -1    1.42    0.69
   4   0  -1    1.43    0.65
   4   0   0 3334.45   22.38
   4   0   0 3443.40   11.00
   4   0   1    1.11    0.80
   4   0   1    0.54    0.47
   4   0   1    0.59    0.81
   4   0   2 6579.57   18.58
   4   0   2 6652.36   32.37
  -4   0  -3    0.35    0.60
   4   0   3    0.18    0.68
   4   0   3    0.30    0.83
   4   0   4  251.03    7.32
   4   0   4  265.75    6.80
   4   0   5   -0.03    0.80
   4   0   6  355.41    7.68
   4   0   6  338.64    9.30
  -4   0  -7    1.53    0.58
   4   0   7    0.35    0.97
  -4   0  -7    0.16    0.44
  -4   0  -8  362.38    7.24
  -4   0  -8  401.59    7.29
   4   0   9    0.37    0.95
  -4   0  -9    0.67    0.46
  -4   0  -9    2.24    0.79
   4   0   9    0.83    1.22
  -4   0 -10  489.79    9.82
   4   0  10  538.37   14.92
  -4   0 -10  548.22    9.40
   4   0  10  509.44   14.42
  -4   0 -10  524.55    9.62
   4   0  11    0.43    1.37
  -4   0 -11    0.84    1.28
   4   0  11    0.36    1.28
  -4   0 -11   -0.06    0.96
  -4   0 -12  993.79   13.94
  -4   0 -12  937.83   14.79
  -4   0 -13    0.16    1.01
  -4   0 -13    0.31    1.47
  -4   0 -14  476.67   10.06
  -4   0 -14  476.53   10.97
  -4   0 -15   -0.07    1.41
  -4   0 -15    1.02    1.17
  -4   0 -16  155.32    5.26
  -4   0 -16  172.72    5.85
  -4   0 -17    0.16    0.95
  -4   0 -17    0.53    0.82
   4  -1 -17    5.85    0.86
   4  -1 -16  124.21    3.92
   4  -1 -15    1.84    0.64
   4   1 -15    1.86    0.70
   4  -1 -15    1.39    0.79
   4   1 -15    1.46    0.69
   4  -1 -15    1.90    0.78
   4   1 -14   24.07    1.72
   4   1 -14   26.68    2.03
   4  -1 -14   23.93    2.02
   4  -1 -14   25.58    1.70
   4  -1 -13    6.87    1.45
   4  -1 -13    7.49    0.96
   4   1 -13    7.41    1.02
   4  -1 -13    6.34    1.24
   4  -1 -13    6.58    1.02
   4   1 -13    6.41    1.07
   4   1 -13    7.39    1.26
   4  -1 -13    9.76    1.55
   4  -1 -12   14.84    1.80
   4  -1 -12   12.12    1.21
   4   1 -12   11.15    1.23
   4  -1 -12   12.41    1.33
   4  -1 -12   13.92    1.67
   4   1 -12   14.98    1.63
   4   1 -12   11.72    1.34
   4  -1 -12   11.82    1.80
   4  -1 -11   32.36    1.81
   4   1 -11   30.92    1.86
   4  -1 -11   27.80    2.13
   4   1 -11   28.82    1.94
   4  -1 -11   27.78    2.26
   4   1 -11   31.03    2.18
   4  -1 -11   27.14    2.39
   4  -1 -11   35.32    2.80
  -4   1  11   34.23    4.17
   4   1 -11   30.81    1.66
   4  -1 -11   29.47    1.93
   4  -1 -10    4.31    0.77
   4   1 -10    4.30    0.81
   4  -1 -10    5.33    1.03
   4  -1 -10    4.76    0.90
   4  -1 -10    6.59    1.32
   4  -1 -10    3.40    0.95
  -4   1  10    4.71    1.77
   4  -1  -9    4.70    1.08
  -4  -1   9    4.21    1.33
  -4   1   9    4.51    1.51
   4  -1  -8   57.68    3.36
  -4  -1   8   51.68    3.54
  -4   1   8   52.04    3.93
   4  -1  -7   83.50    2.73
  -4  -1   7   73.46    3.74
   4  -1  -7   77.16    3.84
   4  -1  -6   39.60    2.66
   4   1  -6   43.57    2.91
  -4   1   6   41.04    2.95
  -4  -1   6   33.59    1.91
  -4  -1   6   42.08    2.66
   4  -1  -6   41.58    2.12
  -4  -1   5   14.77    1.59
   4   1  -5   14.14    1.68
   4  -1  -5   12.71    1.22
  -4   1   5   16.88    1.89
   4  -1  -5   10.79    1.74
  -4  -1   5   13.38    1.34
   4   1  -4  124.76    3.23
   4  -1  -4  119.14    4.56
   4   1  -4  104.01    4.06
  -4  -1   4  110.44    4.13
  -4   1   4  120.92    4.50
  -4  -1   4  121.72    4.20
   4  -1  -3  269.24    6.51
   4  -1  -3  227.82    5.12
   4   1  -3  240.04    5.81
  -4   1   3  272.37    6.66
   4  -1  -2  349.01    7.08
  -4  -1   2  332.60    7.99
   4   1  -2  362.82    6.39
   4   1  -2  327.66    6.31
  -4   1   2  361.36    7.72
   4  -1  -1  824.38    4.79
   4   1  -1  750.15    9.02
   4  -1  -1  718.08    9.59
  -4  -1   1  648.53   11.03
   4   1  -1  659.98    9.02
  -4   1   1  754.26   11.21
   4  -1  -1  726.69    9.75
   4  -1   0  846.41    9.68
   4   1   0  864.60    6.02
   4  -1   0  906.48   10.33
   4   1   0  766.24   10.10
   4  -1   0  815.73   10.29
  -4  -1   0  730.70   11.69
   4   1   1   78.24    2.17
   4  -1   1   77.50    3.34
   4  -1   1   63.27    2.51
   4  -1   1   65.90    3.20
  -4  -1  -1   69.37    3.59
   4   1   1   69.48    3.16
   4   1   2  241.73    5.98
   4  -1   2  259.09    6.51
   4  -1   2  248.02    4.51
  -4  -1  -2  268.19    6.94
   4  -1   2  251.18    6.52
   4   1   3   17.64    1.46
   4   1   3   17.52    1.75
   4  -1   3   18.18    1.97
   4  -1   3   18.39    1.17
  -4  -1  -3   18.98    1.86
   4  -1   3   19.57    2.01
   4  -1   4  391.50    8.80
   4  -1   4  437.65    4.40
   4   1   4  392.39    7.40
   4  -1   4  342.83    8.63
   4   1   4  354.06    8.08
   4   1   4  368.90    7.43
  -4  -1  -4  405.70    7.83
   4   1   5  213.84    6.16
   4  -1   5  202.01    6.91
   4   1   5  201.06    6.54
  -4  -1  -5  221.12    5.58
  -4   1  -6   85.71    2.76
   4   1   6   91.24    4.46
   4  -1   6   95.88    4.40
   4  -1   6   86.92    4.81
  -4   1  -6   92.74    3.51
  -4  -1  -6   99.69    3.98
  -4  -1  -7  508.70    9.13
  -4   1  -7  531.12    7.18
   4   1   7  564.49   11.86
   4  -1   7  511.73   12.33
  -4  -1  -7  537.01    8.80
   4   1   7  494.47   11.64
  -4   1  -7  561.84    8.63
   4  -1   7  501.29    9.83
  -4  -1  -8  387.04    7.32
  -4  -1  -8  380.57    8.24
   4   1   8  385.83   10.68
  -4   1  -8  391.63    6.52
   4  -1   8  391.74   11.70
   4   1   8  392.92   11.11
  -4   1  -8  413.40    7.13
   4   1   9  340.55   10.71
  -4  -1  -9  363.60    7.47
  -4  -1  -9  336.15    8.38
   4   1   9  351.64   11.10
  -4   1  -9  340.60    7.79
  -4  -1  -9  319.48    6.66
  -4  -1  -9  317.42    8.04
  -4   1 -10   60.74    3.13
  -4  -1 -10   60.23    3.30
  -4  -1 -10   59.11    3.68
   4  -1  10   60.99    5.39
   4   1  10   58.01    4.91
  -4  -1 -10   53.59    3.61
   4   1  10   63.34    4.87
  -4   1 -10   58.57    3.51
  -4   1 -11  436.43    9.68
  -4   1 -11  489.30    9.05
  -4  -1 -11  479.86    9.70
   4   1  11  455.33   14.43
   4  -1  11  491.26   15.89
  -4  -1 -11  471.07   10.76
  -4  -1 -11  425.83   10.23
  -4  -1 -12  169.36    6.76
  -4   1 -12  167.62    5.63
  -4  -1 -12  180.24    6.47
  -4   1 -12  173.06    6.38
  -4   1 -13  386.56    8.87
  -4   1 -13  393.87    9.69
  -4  -1 -13  419.51    9.86
  -4  -1 -13  393.47    7.23
  -4  -1 -13  389.80   10.32
  -4   1 -14  136.38    5.24
  -4  -1 -14  144.66    5.89
  -4  -1 -14  133.89    6.12
  -4   1 -14  136.21    5.87
  -4   1 -15   68.79    4.12
  -4  -1 -15   69.52    4.27
  -4   1 -15   67.21    3.61
  -4  -1 -15   73.20    4.05
  -4  -1 -16  302.35    7.46
  -4  -1 -16  314.81    7.89
  -4   1 -16  308.78    7.54
  -4  -1 -17   49.18    2.80
  -4   1 -17   44.96    2.68
  -4  -1 -18    9.75    1.16
  -4   1 -18    7.49    0.85
  -4  -1 -18    6.85    1.06
   4  -2 -17   51.42    2.22
   4  -2 -16  295.86    6.05
   4   2 -15   71.04    2.53
   4  -2 -15   70.71    3.29
   4  -2 -15   66.98    2.26
   4  -2 -15   69.53    3.37
   4  -2 -14  138.97    3.62
   4  -2 -14  154.58    5.31
   4  -2 -14  145.89    5.42
   4  -2 -14  140.97    4.97
   4   2 -14  149.69    4.12
   4   2 -14  141.24    3.36
   4   2 -13   35.47    2.16
   4  -2 -13   32.62    2.74
   4  -2 -13   35.07    1.80
   4  -2 -13   30.33    2.48
   4  -2 -13   38.42    2.83
   4  -2 -13   32.64    1.95
   4   2 -13   35.80    2.33
   4   2 -13   36.91    1.93
   4   2 -12    1.59    0.61
   4  -2 -12    1.69    0.62
   4   2 -12    3.24    0.91
   4  -2 -12    2.69    1.04
   4  -2 -12    2.52    1.10
   4   2 -12    2.38    0.84
   4  -2 -12    1.93    1.15
   4  -2 -12    2.56    0.79
   4  -2 -11    4.13    0.82
   4   2 -11    6.83    1.17
   4  -2 -11    4.54    1.29
   4   2 -11    4.54    0.97
   4   2 -11    4.56    0.82
   4  -2 -11    4.56    0.93
   4  -2 -10  410.36    6.42
   4   2 -10  429.14    7.77
   4  -2 -10  391.68    8.17
   4  -2 -10  405.31    6.92
   4  -2 -10  426.15    9.56
   4  -2 -10  397.17    8.67
   4  -2 -10  386.34    7.70
   4   2 -10  412.41    6.09
   4  -2  -9  100.27    3.22
   4   2  -9   94.54    3.20
   4   2  -9   99.67    3.44
   4  -2  -9  103.97    4.67
  -4   2   9   96.96    5.87
   4  -2  -9   90.55    3.64
   4   2  -9   99.09    2.91
   4  -2  -9   98.26    3.76
  -4   2   8 1906.87   23.89
   4  -2  -8 2179.06   21.91
   4  -2  -7  844.33   13.33
  -4   2   7  841.99   14.80
   4  -2  -6  682.86   11.93
   4  -2  -6  653.65    9.32
  -4   2   6  654.50   12.21
   4  -2  -5  945.58   13.80
   4  -2  -5  958.95   11.95
  -4   2   5  935.71   13.82
  -4  -2   4 1860.35   16.65
  -4   2   4 2071.68   19.87
  -4  -2   3  369.24    7.84
   4  -2  -3  371.29    7.37
   4  -2  -3  372.51    8.12
  -4   2   3  380.50    8.39
  -4   2   2 1728.44   17.89
  -4  -2   2 1764.37   18.12
   4  -2  -1  183.14    5.41
   4  -2  -1  188.41    4.47
   4  -2  -1  184.74    5.47
  -4  -2   1  194.86    6.21
  -4  -2   0 1497.89   17.28
   4  -2   0 1468.63   14.79
   4   2   1   70.04    2.36
   4  -2   1   71.69    3.33
  -4  -2  -1   74.53    3.93
   4  -2   1   74.65    3.72
   4  -2   2 1663.55   17.12
   4  -2   2 1617.43   17.19
  -4  -2  -2 1652.18   18.04
   4  -2   3  740.54   11.96
   4  -2   3  756.10   11.81
   4   2   4 1114.35   13.20
   4  -2   4 1128.40   14.99
   4  -2   4 1104.99   15.73
  -4  -2  -4 1110.45   14.14
  -4   2  -5 1010.70    6.36
   4   2   5  924.30   13.36
  -4  -2  -5  969.55   13.04
   4  -2   5 1034.96   15.78
   4  -2   5  926.41   15.23
   4   2   6  776.19   13.19
   4  -2   6  776.00   14.80
  -4  -2  -7  651.01   11.51
   4  -2   7  702.55   13.39
   4   2   7  591.80   12.55
   4  -2   7  640.18   14.19
  -4   2  -7  677.63    9.78
  -4  -2  -7  635.45   10.33
   4   2   8 1714.12   23.04
   4  -2   8 1757.44   25.39
  -4   2  -8 1741.73   15.05
  -4  -2  -8 1708.92   17.40
  -4  -2  -9  450.79   10.62
  -4  -2  -9  469.31    9.15
   4   2   9  460.23   12.93
   4  -2   9  443.52   13.56
  -4  -2  -9  431.13   10.22
  -4  -2  -9  420.47    8.50
  -4  -2 -10  185.44    6.11
  -4  -2 -10  172.79    6.91
   4   2  10  171.21    8.54
  -4   2 -10  188.05    6.06
   4  -2  10  158.49    8.84
  -4  -2 -10  167.40    6.73
  -4  -2 -10  180.08    5.26
  -4   2 -11   49.77    2.92
  -4  -2 -11   52.73    3.48
  -4  -2 -11   49.39    2.90
  -4   2 -11   47.62    3.53
  -4  -2 -11   44.05    3.74
  -4   2 -12    0.97    1.29
  -4  -2 -12    1.46    1.20
  -4  -2 -12    1.90    0.92
  -4  -2 -12    1.02    1.54
  -4  -2 -13   18.56    2.47
  -4   2 -13   18.42    2.43
  -4  -2 -13   18.81    1.90
  -4  -2 -13   19.32    2.74
  -4  -2 -14   65.91    4.14
  -4   2 -14   57.14    3.75
  -4  -2 -14   60.86    4.36
  -4  -2 -14   58.61    2.96
  -4   2 -15   16.25    1.74
  -4  -2 -15   20.03    2.40
  -4   2 -15   17.29    2.21
  -4  -2 -15   18.04    1.63
  -4  -2 -15   17.47    2.45
  -4   2 -16   26.11    1.88
  -4  -2 -16   29.56    2.58
  -4   2 -16   24.65    2.31
  -4  -2 -16   28.38    2.63
  -4   2 -17   14.76    1.59
  -4   2 -17   13.97    1.21
  -4  -2 -17   16.03    1.74
  -4  -2 -18   66.11    2.56
   4  -3 -17   18.42    1.34
   4  -3 -16   39.81    2.23
   4   3 -15   38.20    1.82
   4  -3 -15   41.46    2.65
   4   3 -15   36.06    1.59
   4  -3 -14    8.96    1.57
   4  -3 -14    8.97    1.62
   4  -3 -14    8.26    1.47
   4   3 -14    7.61    1.11
   4  -3 -14    7.64    0.98
   4   3 -14    8.30    0.97
   4  -3 -13   74.82    3.97
   4  -3 -13   71.65    4.09
   4  -3 -13   70.67    2.81
   4   3 -13   72.64    3.11
   4   3 -13   71.75    2.80
   4  -3 -12   56.41    2.66
   4   3 -12   59.19    3.00
   4  -3 -12   56.67    2.40
   4  -3 -12   52.46    3.62
   4  -3 -12   58.94    3.55
   4   3 -12   55.53    2.54
   4  -3 -11    6.25    1.39
   4  -3 -11    5.63    0.91
   4  -3 -11    3.88    1.43
   4  -3 -11    5.84    1.03
   4   3 -11    4.85    0.93
   4  -3 -10    1.85    0.68
   4  -3 -10    1.02    0.94
   4  -3 -10    0.41    0.94
   4  -3 -10    1.70    0.86
   4  -3 -10    2.37    1.05
   4  -3 -10    3.05    1.09
   4   3 -10    0.82    0.79
  -4   3  10    0.72    1.40
   4  -3  -9  281.97    5.55
   4   3  -9  270.51    5.84
   4  -3  -9  280.30    6.90
   4  -3  -9  280.75    6.62
   4   3  -9  280.73    6.22
   4  -3  -9  265.55    7.07
  -4   3   9  282.79   10.30
   4  -3  -8  423.53    6.85
   4   3  -8  380.70    6.74
   4  -3  -8  398.56    8.15
   4  -3  -8  379.68    7.75
   4   3  -8  381.39    7.05
  -4   3   8  395.53   11.40
   4  -3  -8  408.62   10.11
   4   3  -8  409.85    6.07
   4  -3  -8  410.95    8.01
   4  -3  -8  394.60    7.48
   4  -3  -7  341.95    7.93
   4  -3  -7  333.31    9.01
  -4   3   7  329.76    9.67
   4  -3  -6    0.83    0.63
  -4  -3   6    0.37    0.48
   4  -3  -6    0.07    0.74
  -4   3   6    0.35    0.93
   4  -3  -5    5.95    1.14
  -4  -3   5    5.27    1.07
   4  -3  -5    5.45    1.33
  -4   3   5    5.22    1.50
  -4   3   4  334.55    8.53
  -4  -3   4  328.96    7.99
   4  -3  -3   22.86    2.17
   4  -3  -3   17.55    2.13
  -4   3   3   17.26    2.01
  -4  -3   3   16.89    1.93
   4  -3  -2    7.26    1.29
   4  -3  -2    8.86    1.56
  -4   3   2   11.57    1.75
   4  -3  -1    1.97    0.81
  -4  -3   1    1.70    0.94
   4  -3  -1    1.11    0.58
  -4   3   1    1.63    0.94
   4  -3   0 1039.23   13.93
   4  -3   0 1029.60   12.08
   4  -3   1  210.63    6.39
  -4  -3  -1  193.57    6.54
   4  -3   2    2.57    1.06
  -4  -3  -2    2.39    0.98
   4   3   3  914.49   11.86
   4  -3   3  813.85   13.81
   4  -3   3  955.04   15.35
  -4  -3  -3  868.93   13.76
   4  -3   4   30.38    2.91
  -4  -3  -4   34.33    2.79
   4   3   5  360.47    8.82
   4  -3   5  373.82   10.10
  -4  -3  -5  352.63    8.76
  -4  -3  -6  473.38   10.63
   4   3   6  455.32   10.92
  -4  -3  -7   10.64    1.83
   4  -3   7   11.00    2.31
   4   3   7   10.88    2.12
  -4  -3  -7   10.97    1.67
   4  -3   7   16.32    2.54
  -4  -3  -8  482.52   11.59
  -4  -3  -8  472.02    9.59
   4  -3   8  499.49   14.51
   4   3   8  461.74   12.81
  -4   3  -8  482.62    8.40
  -4  -3  -8  465.74   10.00
   4   3   9    5.41    0.98
  -4  -3  -9    6.86    1.60
  -4  -3  -9    8.46    1.67
   4  -3   9    8.01    2.28
  -4  -3  -9    5.17    1.09
  -4  -3  -9    5.29    1.94
   4   3   9    5.59    1.99
  -4  -3  -9    6.07    1.26
  -4  -3 -10   93.51    5.59
  -4  -3 -11    2.76    1.35
  -4   3 -11    1.40    0.83
  -4   3 -11    2.68    1.44
  -4  -3 -11    1.45    1.04
  -4  -3 -11    2.53    1.80
  -4   3 -12  563.32    9.52
  -4  -3 -12  581.73   12.27
  -4   3 -12  604.28   11.67
  -4  -3 -12  585.29   10.53
  -4  -3 -12  565.56   13.55
  -4   3 -13   14.91    1.68
  -4  -3 -13   16.24    2.35
  -4  -3 -13   11.60    2.58
  -4  -3 -13   14.26    1.87
  -4   3 -13   13.94    2.27
  -4   3 -14    2.85    0.96
  -4  -3 -14    3.45    1.55
  -4   3 -14    2.86    1.45
  -4  -3 -14    2.58    1.78
  -4  -3 -14    2.97    1.04
  -4  -3 -14    2.33    0.98
  -4   3 -15  282.97    5.76
  -4  -3 -15  305.68    8.09
  -4   3 -15  285.52    7.14
  -4  -3 -15  295.44    6.21
  -4  -3 -15  290.47    8.36
  -4  -3 -16   27.35    2.41
  -4   3 -16   20.33    1.40
  -4   3 -16   24.27    2.14
  -4  -3 -16   24.51    1.61
  -4  -3 -17  149.76    4.46
  -4   3 -17  128.29    3.66
  -4  -3 -18   31.93    1.62
   4  -4 -17    8.70    0.88
   4  -4 -16    4.43    0.91
   4  -4 -15   25.26    2.02
   4  -4 -15   23.78    2.03
   4   4 -15   20.21    1.21
   4  -4 -14   63.99    2.26
   4  -4 -14   68.16    3.63
   4   4 -14   63.99    2.56
   4  -4 -14   68.49    3.50
   4   4 -14   61.71    2.35
   4  -4 -13  588.56   10.50
   4  -4 -13  598.69    7.73
   4   4 -13  602.67    8.54
   4  -4 -13  573.40   11.01
   4  -4 -13  576.68   10.79
   4   4 -13  598.32    7.78
   4  -4 -12  389.45    6.00
   4  -4 -12  376.65    6.67
   4  -4 -12  388.71    8.70
   4  -4 -12  364.11    9.11
   4  -4 -12  370.60    9.22
   4  -4 -11 1002.19   10.28
   4  -4 -11  985.73   14.78
   4  -4 -11  948.83   14.74
   4  -4 -11  990.79   13.79
   4   4 -11 1020.37   12.37
   4  -4 -11  974.25   11.35
   4   4 -11  981.57   10.75
   4  -4 -10   64.57    2.81
   4  -4 -10   59.86    3.87
   4  -4 -10   64.57    3.53
   4  -4 -10   61.85    3.96
   4   4 -10   61.89    3.27
   4   4 -10   63.07    2.83
   4  -4  -9  249.56    5.66
   4   4  -9  256.42    6.45
   4  -4  -9  256.17    6.59
   4  -4  -9  254.53    7.25
   4  -4  -9  256.73    7.57
   4   4  -9  273.60    5.62
   4  -4  -8   53.58    4.03
   4   4  -8   49.22    2.91
   4  -4  -8   49.73    3.20
  -4   4   8   52.43    4.53
   4  -4  -8   54.57    3.37
   4   4  -8   51.84    2.45
   4  -4  -7  236.53    5.78
   4  -4  -7  228.66    6.86
   4   4  -7  235.47    5.99
   4   4  -7  249.18    5.29
   4  -4  -7  234.87    8.35
  -4   4   7  223.12    8.73
   4   4  -7  238.85    4.94
   4  -4  -7  240.57    6.79
   4  -4  -6  616.36   11.80
   4  -4  -6  646.72   10.65
   4   4  -6  635.75    8.11
   4   4  -6  592.20    9.15
   4  -4  -6  610.28   13.11
  -4   4   6  626.23   13.68
   4  -4  -5  154.20    5.96
   4  -4  -5  141.75    6.44
  -4   4   5  145.54    6.45
  -4  -4   5  130.06    5.64
  -4   4   4   32.20    2.94
   4  -4  -4   30.08    2.68
   4  -4  -4   28.99    3.03
  -4  -4   4   28.04    2.76
   4  -4  -3  198.22    6.77
  -4   4   3  215.17    7.28
   4  -4  -3  211.58    7.81
  -4  -4   3  198.53    7.26
   4  -4  -2  741.36    7.57
  -4   4   2  741.36   12.92
  -4  -4   1 1907.32   22.96
  -4   4   1 1906.16   20.30
   4  -4   0  845.45   11.56
  -4  -4   0  827.45   15.53
   4  -4   1  891.75   14.93
   4  -4   1  919.71   13.22
   4  -4   2   22.88    2.47
   4  -4   2   27.86    2.59
  -4  -4  -2   23.46    2.77
   4  -4   3   81.26    4.57
  -4  -4  -3   81.16    4.87
   4   4   4  347.44    8.90
   4  -4   4  355.56   10.85
  -4  -4  -5  470.68   11.51
   4   4   5  475.36   11.32
  -4  -4  -5  457.82   11.21
  -4  -4  -6  504.19   12.27
   4   4   6  472.97    8.04
   4   4   6  498.62   12.47
   4  -4   6  533.26   13.47
  -4  -4  -6  504.66   10.01
   4  -4   6  468.73   12.82
  -4  -4  -7   57.88    3.45
  -4  -4  -7   57.42    4.36
   4   4   7   50.93    2.75
  -4  -4  -7   47.59    3.42
   4  -4   7   63.63    5.25
   4  -4   7   67.82    5.34
  -4  -4  -7   47.33    4.28
  -4  -4  -7   55.31    4.03
   4   4   7   55.97    4.75
   4   4   8    7.42    1.23
  -4  -4  -8    6.53    1.69
  -4  -4  -8    7.03    1.65
   4  -4   8   10.21    2.46
   4   4   8    7.74    2.21
  -4  -4  -8    2.79    2.21
  -4  -4  -8    7.26    1.42
  -4  -4  -8    7.59    1.59
  -4  -4  -9    3.15    1.39
  -4  -4  -9    3.92    2.03
  -4  -4  -9    4.38    1.03
  -4  -4  -9    6.22    1.33
  -4  -4  -9    3.88    1.20
  -4  -4 -10  189.11    8.67
  -4  -4 -10  205.22    7.45
  -4  -4 -10  207.62    5.74
  -4  -4 -10  209.44    6.16
  -4   4 -11  566.61    8.97
  -4  -4 -11  529.94   12.30
  -4  -4 -11  529.81   14.20
  -4  -4 -11  567.83   11.34
  -4  -4 -12  218.83    9.07
  -4  -4 -12  227.84    7.11
  -4   4 -12  232.23    5.70
  -4   4 -12  232.26    7.23
  -4   4 -13  475.93    7.76
  -4  -4 -13  471.95   11.04
  -4   4 -13  479.08    9.99
  -4  -4 -13  480.74    9.61
  -4   4 -14   12.79    1.32
  -4  -4 -14   13.26    1.71
  -4   4 -14   12.16    1.88
  -4  -4 -14   12.69    1.66
  -4  -4 -14   14.58    2.13
  -4   4 -15   71.24    2.33
  -4   4 -15   78.26    3.44
  -4  -4 -15   79.91    2.98
  -4  -4 -15   81.53    4.02
  -4  -4 -16   70.73    2.59
  -4  -4 -16   76.97    3.49
  -4   4 -17    7.78    0.92
  -4  -4 -17    8.95    1.08
   4  -5 -16   25.51    1.45
   4   5 -15   24.54    1.19
   4  -5 -15   31.34    1.91
   4  -5 -14    7.45    0.74
   4  -5 -14    8.55    1.47
   4  -5 -14    8.60    1.27
   4  -5 -13   10.64    1.51
   4  -5 -13    6.37    0.93
   4  -5 -13    8.00    1.59
   4   5 -13    6.54    1.00
   4   5 -12    1.55    0.78
   4  -5 -12    1.01    0.75
   4  -5 -12    3.14    1.11
   4  -5 -12    1.19    1.28
   4  -5 -11   49.37    2.32
   4  -5 -11   43.73    2.95
   4  -5 -11   44.25    3.28
   4  -5 -11   46.29    2.60
   4   5 -11   44.59    2.82
   4   5 -11   43.84    2.47
   4  -5 -10    4.99    1.65
   4  -5 -10    2.85    0.91
   4  -5 -10    4.60    1.72
   4   5 -10    2.67    1.29
   4   5 -10    3.91    1.24
   4  -5  -9  248.30    5.88
   4  -5  -9  225.92    6.27
   4   5  -9  234.27    6.55
   4  -5  -9  241.57    7.26
   4  -5  -9  254.33    8.09
   4   5  -9  247.99    5.72
   4   5  -8   39.59    2.81
   4  -5  -8   35.40    2.38
   4  -5  -8   39.90    2.64
   4   5  -8   39.13    2.37
   4  -5  -7  375.46    8.32
   4   5  -7  366.39    8.16
   4  -5  -7  379.77    7.49
   4   5  -7  381.95    6.84
   4   5  -6    1.83    0.76
   4  -5  -6    1.62    0.79
   4   5  -6    3.24    0.90
   4  -5  -6    3.20    0.90
   4   5  -6    1.89    1.06
   4  -5  -6    2.75    1.05
   4  -5  -6    2.63    1.34
  -4   5   6    2.80    1.05
  -4   5   6    2.02    1.44
   4  -5  -6    2.12    1.06
   4  -5  -5  276.36    8.89
   4  -5  -5  294.74    6.75
   4   5  -5  285.89    5.87
   4   5  -5  272.11    6.63
   4  -5  -5  305.90    6.28
   4  -5  -5  282.90    9.96
  -4   5   5  327.15    7.26
   4  -5  -5  262.37    6.47
  -4   5   5  286.59    9.65
   4   5  -5  288.55    5.63
  -4  -5   5  234.78    9.03
  -4  -5   4    1.55    1.06
   4   5  -4   10.62    1.49
   4  -5  -4    9.51    2.08
   4   5  -4    5.81    1.05
   4  -5  -4    1.42    1.05
   4  -5  -3  137.98    6.28
   4   5  -3  146.94    4.17
  -4   5   3  153.38    4.60
   4  -5  -3  129.54    4.47
   4   5  -3  137.41    4.52
  -4  -5   3  125.16    6.71
   4  -5  -2  346.19    9.96
  -4   5   2  363.95    6.86
   4  -5  -2  330.80    7.13
  -4   5   2  350.52    9.65
  -4  -5   2  328.36   10.90
   4  -5  -1    7.51    1.64
  -4   5   1    6.45    1.03
   4  -5  -1    7.90    1.25
   4  -5   0   22.05    2.67
   4  -5   0   24.78    2.14
  -4  -5   0   21.65    3.00
   4  -5   1   97.62    5.49
   4  -5   1  102.24    4.71
  -4  -5  -1   93.64    6.06
   4  -5   2  208.33    7.28
   4   5   2  223.32    5.36
   4  -5   2  218.51    8.31
  -4  -5  -2  216.30    7.56
  -4   5  -2  207.85    4.94
   4  -5   2  203.56    5.96
  -4  -5  -2  199.83    8.72
   4   5   3  295.75    6.34
   4  -5   3  284.62    9.00
   4  -5   3  276.74    7.14
  -4  -5  -3  292.62    8.69
   4   5   4  473.00    8.26
   4  -5   4  457.52   12.03
   4  -5   4  507.19   13.74
  -4   5  -4  446.53    7.43
   4  -5   4  464.16    9.72
  -4  -5  -4  486.19   11.14
  -4  -5  -4  455.63   12.28
  -4  -5  -4  423.51   12.56
  -4  -5  -5  224.86    8.83
   4   5   5  219.72    5.85
   4  -5   5  258.59   10.28
   4  -5   5  215.21    8.76
   4  -5   5  261.19    7.79
   4   5   5  237.58    8.83
  -4  -5  -5  203.87    8.71
  -4   5  -5  214.39    5.20
  -4  -5  -5  247.50    7.96
  -4  -5  -6   88.86    5.73
   4   5   6   92.01    6.13
   4  -5   6   98.67    5.05
   4  -5   6  102.38    6.80
  -4   5  -7  229.27    5.43
  -4  -5  -7  208.96    7.65
  -4  -5  -7  249.22    7.13
  -4  -5  -7  246.26    7.96
  -4  -5  -7  221.92    8.96
  -4  -5  -8   96.02    4.37
  -4  -5  -8  101.50    4.96
  -4  -5  -9  224.75    7.17
  -4  -5  -9  231.83    6.60
  -4  -5 -10  449.81    8.71
  -4  -5 -10  442.57    9.32
  -4   5 -11  124.82    3.94
  -4  -5 -11  127.11    5.83
  -4   5 -12    4.08    0.90
  -4  -5 -12    4.65    1.64
  -4  -5 -13   27.00    2.54
  -4  -5 -13   26.69    2.43
  -4  -5 -13   26.87    2.75
  -4   5 -13   26.73    2.41
  -4   5 -14   83.48    3.51
  -4  -5 -14   99.64    4.00
  -4  -5 -14   93.58    3.85
  -4  -5 -14   94.28    4.41
  -4  -5 -15   48.43    2.84
  -4  -5 -15   47.91    2.24
  -4  -5 -15   48.44    2.50
  -4   5 -15   43.04    2.28
  -4  -5 -16  153.36    3.74
  -4   5 -16  149.05    3.39
   4   6 -15  101.75    1.92
   4  -6 -15  136.44    2.96
   4   6 -14    7.16    0.79
   4  -6 -14    8.25    1.01
   4  -6 -14    8.03    1.17
   4  -6 -13    4.72    0.68
   4  -6 -13    4.44    1.14
   4  -6 -13    4.73    0.96
   4   6 -13    4.28    0.78
   4   6 -12    0.38    0.66
   4  -6 -12    1.28    0.68
   4  -6 -12    0.98    0.94
   4  -6 -11   11.24    1.34
   4  -6 -11    9.30    1.59
   4  -6 -11    8.89    1.38
   4   6 -11   10.86    1.33
   4  -6 -10    7.32    1.10
   4  -6 -10    6.52    1.26
   4   6 -10    5.45    1.28
   4  -6  -9  637.23    9.19
   4   6  -9  566.95   10.36
   4  -6  -9  557.74   10.61
  -4   6   9  679.15   12.03
   4  -6  -9  490.33    8.11
   4  -6  -9  530.81    9.25
   4   6  -9  561.90    8.89
   4  -6  -8   11.59    1.51
   4  -6  -8   11.67    1.56
   4   6  -8   12.78    1.93
  -4   6   8   14.05    2.06
   4  -6  -8   10.99    1.78
   4   6  -8   16.37    1.71
   4  -6  -7  450.03    9.16
   4   6  -7  449.62    9.62
   4  -6  -7  425.89    8.45
   4  -6  -7  446.03    8.15
   4   6  -7  430.05    7.78
   4  -6  -6   65.12    3.12
   4   6  -6   62.85    3.72
   4  -6  -6   60.39    3.39
   4   6  -6   62.21    3.01
  -4   6   6   71.15    3.81
   4  -6  -6   56.07    3.23
   4   6  -5  595.68   10.95
   4  -6  -5  652.13   10.39
   4   6  -4    0.94    0.92
  -4  -6   4    0.82    1.16
   4  -6  -4    1.10    1.03
   4   6  -4    4.50    1.19
  -4   6   4    0.16    0.94
  -4  -6   4    0.69    1.32
   4  -6  -3 1244.56   20.62
  -4   6   3 1394.50   14.81
   4  -6  -3 1322.76   23.45
  -4  -6   3 1216.28   18.14
   4  -6  -3 1223.75   15.16
  -4   6   3 1341.60   20.56
   4   6  -3 1325.48   12.63
  -4  -6   3 1182.26   19.77
  -4  -6   3 1107.63   23.68
   4   6  -2    2.92    0.89
  -4  -6   2    2.56    1.68
  -4  -6   2    2.57    1.36
   4  -6  -2    3.28    1.11
   4   6  -2    8.08    1.31
  -4   6   2    1.53    1.02
  -4  -6   2    2.28    1.49
   4  -6  -2    2.89    1.33
  -4  -6   1   27.61    3.32
   4  -6  -1   30.50    3.37
   4   6  -1   32.29    2.20
  -4  -6   1   28.70    3.06
  -4   6   1   31.79    2.26
   4  -6  -1   25.25    2.49
   4   6  -1   30.93    1.98
  -4  -6   1   28.14    3.99
   4  -6   0   12.83    2.28
  -4  -6   0    6.83    1.95
  -4  -6   0    4.71    1.51
   4   6   0    4.10    1.03
  -4   6   0   13.06    1.48
   4  -6   0    8.61    1.58
   4   6   0    3.80    0.86
  -4  -6  -1   17.26    2.86
  -4  -6  -1   16.11    2.72
   4  -6   1   18.00    2.72
   4  -6   1   15.45    1.93
  -4   6  -1   15.48    1.60
   4   6   1   18.51    1.75
  -4  -6  -1   16.35    3.06
  -4  -6  -2   26.15    3.37
  -4  -6  -2   24.46    3.31
  -4  -6  -2   24.47    2.91
  -4   6  -2   26.33    1.99
   4  -6   2   26.47    2.51
  -4  -6  -2   24.66    3.64
  -4  -6  -3  829.49   18.26
   4  -6   3  828.48   13.55
   4  -6   3  847.58   18.01
  -4  -6  -3  813.05   15.71
   4  -6   3  865.45   16.19
  -4  -6  -3  867.87   17.77
  -4  -6  -4   89.81    5.67
  -4  -6  -4   88.17    5.12
  -4   6  -4   84.23    3.49
   4  -6   4   93.40    4.75
   4  -6   4   93.13    5.75
   4  -6   5  767.31   14.16
  -4  -6  -5  687.81   13.78
  -4   6  -5  645.00    9.31
  -4  -6  -5  732.29   15.50
  -4  -6  -6   37.10    3.26
  -4   6  -6   35.59    2.27
  -4  -6  -6   41.13    3.77
  -4   6  -7  654.93    9.07
   4  -6   7  955.21   16.09
  -4  -6  -8    5.67    1.43
  -4  -6  -8    3.09    1.40
  -4  -6  -9  716.26   11.99
  -4  -6  -9  681.03   12.86
  -4  -6 -10    2.33    1.00
  -4  -6 -10    1.92    1.37
  -4  -6 -10    2.73    1.78
  -4  -6 -10    1.47    1.06
  -4  -6 -11   35.24    3.19
  -4  -6 -11   35.98    3.31
  -4  -6 -11   31.64    2.13
  -4  -6 -12    6.56    1.59
  -4  -6 -12    5.23    1.69
  -4   6 -12    4.46    1.30
  -4  -6 -12    5.52    1.56
  -4  -6 -13    3.02    1.12
  -4  -6 -13    3.59    1.21
  -4  -6 -13    2.53    1.25
  -4   6 -14   16.31    1.43
  -4  -6 -14   20.58    1.79
  -4  -6 -14   19.40    1.77
  -4  -6 -14   15.65    1.48
  -4   6 -15   41.10    1.69
  -4  -6 -15   54.21    2.20
   4   7 -13    1.84    0.51
   4  -7 -13    1.00    0.44
   4   7 -12    2.51    0.67
   4  -7 -12    1.92    0.53
   4  -7 -12    2.07    0.64
   4   7 -11    2.36    0.76
   4  -7 -11    3.40    0.81
   4  -7 -11    2.64    0.75
   4  -7 -11    2.59    0.92
   4  -7 -10   20.99    1.95
   4  -7 -10   22.76    1.72
   4   7 -10   23.53    1.73
   4  -7  -9   55.52    2.51
   4  -7  -9   47.06    2.50
   4  -7  -9   44.40    2.81
  -4   7   9   54.58    3.19
   4  -7  -9   41.54    2.30
   4   7  -9   46.06    2.54
   4  -7  -8   12.49    1.46
   4  -7  -8   11.99    1.66
  -4   7   8   14.25    1.93
   4  -7  -8   10.89    1.44
   4   7  -8   11.23    1.45
  -4   7   7   55.84    3.46
   4  -7  -7   49.41    2.98
   4  -7  -7   45.76    2.88
   4   7  -7   49.23    2.70
   4  -7  -6    1.04    0.96
   4  -7  -6    3.04    1.08
  -4   7   6    0.42    1.00
   4  -7  -5   66.14    3.70
   4   7  -5   65.32    3.13
   4   7  -4    1.89    0.89
  -4  -7   4    2.07    1.37
   4  -7  -4    2.18    1.13
  -4   7   4    2.32    1.14
  -4  -7   4    1.73    1.62
  -4  -7   3   37.23    3.71
  -4   7   3   43.16    2.88
   4  -7  -3   35.20    2.91
  -4  -7   3   37.13    4.09
   4   7  -3   39.51    2.38
  -4  -7   2   29.10    3.46
  -4   7   2   30.91    2.49
   4  -7  -2   28.81    2.72
  -4  -7   2   28.77    3.71
   4   7  -2   31.44    2.11
  -4  -7   1    7.51    2.09
  -4   7   1    8.55    1.46
   4  -7  -1    7.92    1.70
   4   7  -1    7.39    1.12
  -4  -7   0    1.28    1.52
   4  -7   0    1.49    1.06
  -4   7   0    1.42    0.88
  -4  -7   0    0.20    1.62
  -4  -7  -1   14.68    2.72
  -4   7  -1   16.32    1.82
   4  -7   1   15.97    2.13
  -4  -7  -1   14.10    2.93
   4  -7   2  128.91    5.67
  -4  -7  -2  130.72    7.06
  -4   7  -2  121.50    4.37
  -4  -7  -2  134.45    7.91
  -4  -7  -3  180.67    8.17
  -4  -7  -3  175.65    8.92
  -4  -7  -4  253.59    9.45
   4  -7   4  276.38    8.40
  -4  -7  -4  251.70   10.17
  -4  -7  -5  176.13    7.72
  -4  -7  -5  177.86    8.60
  -4   7  -5  164.56    4.78
  -4  -7  -6  119.09    6.69
  -4  -7  -6  116.65    5.94
  -4   7  -6  107.06    3.72
  -4   7  -7   59.05    2.57
  -4  -7  -7   68.28    4.42
  -4  -7  -7   67.64    4.81
  -4  -7  -8   67.31    4.82
  -4  -7  -8   63.56    4.30
  -4  -7  -9   68.73    4.72
  -4  -7  -9   60.68    3.49
  -4  -7  -9   58.97    3.77
  -4  -7 -10    0.99    0.79
  -4  -7 -10    0.84    1.40
  -4  -7 -10    0.43    0.89
  -4  -7 -11   29.01    2.79
  -4  -7 -11   28.74    2.43
  -4  -7 -12   77.19    3.54
  -4  -7 -12   79.85    3.87
  -4  -7 -13   26.50    1.88
  -4  -7 -13   26.68    2.01
  -4   7 -13   22.10    1.43
   4   8 -12   18.55    0.92
   4   8 -11  259.35    3.99
   4  -8 -10   48.57    1.97
   4   8 -10   40.78    1.86
   4  -8  -9   45.60    2.16
   4  -8  -9   42.66    1.77
   4   8  -9   48.78    2.18
   4  -8  -8   22.67    1.58
   4  -8  -8   17.13    1.52
   4  -8  -8   17.92    1.47
  -4   8   8   19.57    1.90
  -4   8   7   80.12    3.77
   4  -8  -7   75.57    3.33
   4   8  -7   69.23    2.89
   4   8  -6   10.81    1.32
   4  -8  -5  168.21    5.59
   4   8  -5  169.92    4.62
   4   8  -4    1.55    0.84
  -4  -8   4    2.00    1.57
   4  -8  -4    1.62    1.11
   4   8  -4    1.21    0.60
  -4   8   4    1.27    1.07
  -4  -8   3  106.47    6.36
  -4   8   3   98.07    4.31
   4  -8  -3   93.54    4.65
  -4  -8   3   96.74    6.49
   4   8  -3   97.76    3.45
  -4  -8   2   66.71    5.23
   4  -8  -2   62.85    4.01
  -4   8   2   68.95    3.65
  -4  -8   2   64.45    5.63
  -4   8   1  436.73    8.62
   4  -8  -1  429.20   10.16
  -4   8   0  231.84    6.33
  -4  -8   0  252.90   10.29
   4  -8   0  245.63    7.76
  -4  -8   0  258.06   11.32
  -4  -8  -1  608.70   15.95
  -4   8  -1  562.14    9.66
   4  -8   1  591.58   11.77
  -4  -8  -1  607.59   17.36
  -4  -8  -2  207.64   10.09
  -4   8  -2  187.10    5.39
  -4  -8  -2  196.89    9.11
   4  -8   2  196.30    6.99
  -4  -8  -3  149.94    8.50
  -4  -8  -3  151.74    7.88
   4  -8   3  174.34    6.58
  -4  -8  -4   36.22    3.93
  -4   8  -4   34.01    2.20
   4  -8   4   41.58    3.36
  -4  -8  -4   36.17    4.40
  -4  -8  -5   81.38    5.32
  -4   8  -5   69.44    2.91
  -4  -8  -5   76.82    5.65
  -4  -8  -6    5.52    1.77
  -4   8  -6    5.57    0.89
  -4  -8  -6    8.80    2.25
   4  -8   6   10.58    1.71
  -4  -8  -6    6.91    2.12
  -4  -8  -7   46.60    3.99
  -4  -8  -7   46.42    3.58
  -4  -8  -7   44.56    3.80
  -4  -8  -8    3.02    1.23
  -4  -8  -8    3.94    1.69
  -4  -8  -9   39.81    3.27
  -4  -8  -9   38.09    2.53
   4   8   9   30.83    1.98
  -4  -8  -9   37.50    2.65
   4   8  10   13.85    1.13
  -4  -8 -10   16.99    1.40
  -4   8 -11  204.75    3.88
  -4  -8 -11  303.89    6.62
  -4  -8 -12   34.18    1.89
   4   9  -8    2.32    0.49
   4   9  -7   11.85    0.92
   4  -9  -7   13.85    1.21
   4   9  -6    0.73    0.45
   4   9  -5    3.86    0.63
  -4   9   5    8.07    1.33
   4  -9  -5    7.25    1.25
  -4   9   4   30.03    2.26
   4  -9  -4   27.71    2.25
  -4  -9   3    0.58    1.36
   4  -9  -3    0.38    0.91
   4   9  -3    0.16    0.50
  -4   9   3    2.68    1.08
   4   9  -2  152.60    3.85
  -4   9   2  155.26    4.91
   4  -9  -2  160.14    5.55
  -4  -9   1    3.36    1.94
   4  -9  -1    2.30    1.25
   4   9  -1    4.06    0.92
  -4   9   1    5.85    1.24
  -4   9   0   35.15    2.33
   4  -9   0   42.99    3.10
  -4  -9  -1    0.98    1.75
   4  -9   1    2.39    1.28
  -4  -9  -1    1.47    1.61
  -4   9  -1    2.03    0.87
  -4  -9  -1    0.34    2.13
  -4  -9  -2    0.08    1.53
  -4  -9  -2    0.39    1.74
  -4   9  -2   -0.06    0.62
  -4  -9  -2   -0.45    2.08
  -4  -9  -3   85.40    5.03
  -4  -9  -3   76.95    5.36
  -4   9  -3   70.52    2.84
  -4  -9  -3   81.46    5.96
  -4  -9  -4    2.25    1.53
   4  -9   4    3.80    1.23
  -4   9  -4    1.72    0.66
  -4  -9  -4    3.75    1.72
  -4  -9  -4    3.91    2.05
  -4   9  -5   37.50    1.70
  -4  -9  -5   44.34    3.72
  -4  -9  -6   10.03    1.97
  -4  -9  -6   10.00    1.82
   4   9   6    8.44    1.28
  -4  -9  -7   10.21    1.61
   4   9   7    6.50    1.05
  -4  -9  -8   60.13    3.25
  -4  -9  -8   61.83    2.80
  -4  -9  -9   10.70    1.36
   4 -10  -4   92.41    2.95
  -4  10   4   84.10    2.69
  -4  10   3   65.89    2.53
   4 -10  -3   78.80    3.04
   4 -10  -2   54.43    2.73
  -4  10   2   42.30    2.11
  -4 -10   1    4.87    1.44
   4 -10  -1    5.37    1.14
   4  10  -1    2.27    0.48
  -4  10   1    4.13    0.85
   4  10   0   18.58    1.22
  -4  10   0   19.20    1.43
   4  10   1   29.15    1.58
  -4  10  -1   29.63    1.64
  -4  10  -2    4.77    0.73
  -4 -10  -2    5.86    1.67
   4  10   2    4.83    0.82
   4 -10   2    7.62    1.19
   4  10   3   70.43    2.47
  -4 -10  -3  100.29    4.77
   4  10   4   61.56    2.24
  -4 -10  -4   93.78    4.22
   4  10   5    5.09    0.71
  -4 -10  -5    8.73    1.36
   5   0 -16    0.63    0.60
   5   0 -16    0.19    0.44
   5   0 -15  190.81    4.98
   5   0 -15  163.32    3.82
   5   0 -14    0.53    0.60
   5   0 -14    0.87    0.72
   5   0 -14    0.77    0.82
   5   0 -13  685.91    8.43
   5   0 -13  667.08    8.87
   5   0 -12    0.29    0.62
   5   0 -11  839.17    9.66
   5   0 -11  832.14   10.22
   5   0 -11  814.17   11.43
   5   0 -10    0.25    0.78
   5   0 -10    1.19    0.87
   5   0  -9  275.32    5.46
   5   0  -9  266.26    5.69
   5   0  -9  265.55    6.05
  -5   0   9  284.39    9.98
   5   0  -8    1.07    0.85
  -5   0   8    6.66    1.68
   5   0  -7  405.97    8.93
  -5   0   7  384.81   10.10
   5   0  -6    0.28    0.37
  -5   0   6    0.10    0.60
   5   0  -6    0.29    0.61
  -5   0   5  796.25   13.69
   5   0  -5  906.44   10.16
   5   0  -5  876.67   12.31
  -5   0   5  808.82   13.60
  -5   0   4    0.15    0.79
   5   0  -4    0.22    0.45
   5   0  -4   -0.03    0.59
   5   0  -3  153.32    4.88
  -5   0   2    0.07    0.86
   5   0  -2    0.26    0.65
   5   0  -2    0.19    0.59
   5   0  -1 1508.93   15.66
  -5   0   1 1389.56   17.89
   5   0   0    0.19    0.72
  -5   0   0   -0.27    0.97
   5   0   0    0.23    0.21
   5   0   0    0.13    0.46
   5   0   1 2362.90   11.99
  -5   0  -1 2390.93   22.39
   5   0   2    0.55    0.42
  -5   0  -2    0.19    0.74
   5   0   2    0.23    0.68
   5   0   2    0.79    0.88
   5   0   2    0.57    0.37
   5   0   3  909.52   13.64
   5   0   3  918.34   13.56
  -5   0  -3  877.97   13.09
  -5   0  -4    0.57    0.76
   5   0   4    0.60    1.07
   5   0   4    0.63    0.82
   5   0   5 1711.62   21.74
  -5   0  -5 1837.29   18.87
  -5   0  -6    0.15    0.65
   5   0   6    0.51    0.72
  -5   0  -7 1130.59   12.99
   5   0   7 1155.26   16.61
   5   0   7 1109.52   18.93
  -5   0  -7 1112.06   13.48
  -5   0  -8    3.54    0.95
   5   0   8    0.61    0.93
  -5   0  -9   65.32    3.69
   5   0   9   60.22    4.60
  -5   0  -9   62.05    3.44
   5   0   9   64.77    5.20
  -5   0  -9   58.00    3.14
  -5   0 -10    1.08    1.33
   5   0  10    0.42    1.16
  -5   0 -10    3.37    1.19
   5   0  10    0.51    1.32
  -5   0 -11  831.67   12.93
  -5   0 -11  762.55   13.81
  -5   0 -12    2.43    1.31
  -5   0 -12    0.39    1.51
  -5   0 -13  371.29    9.15
  -5   0 -13  329.91    9.55
  -5   0 -14    1.06    1.18
  -5   0 -14    2.51    1.74
  -5   0 -15   62.53    3.64
  -5   0 -15   57.12    3.79
  -5   0 -16    3.90    1.23
  -5   0 -16    2.31    1.31
  -5   0 -17   77.57    3.11
  -5   0 -17   77.53    3.37
  -5   0 -18    0.09    0.44
  -5   0 -18    0.55    0.58
   5  -1 -17   50.45    1.97
   5  -1 -16    1.52    0.49
   5   1 -16    1.96    0.56
   5  -1 -16    2.07    0.76
   5   1 -15   22.04    1.51
   5   1 -15   25.87    1.80
   5  -1 -15   22.85    1.44
   5   1 -14    0.87    0.69
   5  -1 -14    0.40    0.53
   5  -1 -14    0.25    0.84
   5   1 -14    0.59    0.71
   5  -1 -14    1.27    0.69
   5  -1 -13    1.09    0.59
   5   1 -13    1.33    0.70
   5   1 -13    1.07    0.75
   5  -1 -13    1.20    0.94
   5   1 -13    1.56    0.84
   5  -1 -13    0.58    0.70
   5  -1 -12   12.82    1.29
   5   1 -12   12.24    1.36
   5  -1 -12   12.90    1.42
   5  -1 -12   13.26    1.75
   5   1 -12   12.22    1.56
   5  -1 -12   10.37    1.47
   5  -1 -11   12.28    1.30
   5  -1 -11   10.46    1.46
   5   1 -11   11.54    1.41
   5   1 -11   10.01    1.42
   5  -1 -11    9.39    1.49
   5   1 -11   10.78    1.08
   5  -1 -10    5.28    0.94
   5   1 -10    6.54    1.05
   5  -1 -10    3.83    1.03
   5   1 -10    5.77    1.10
   5   1 -10    4.67    1.09
   5  -1 -10    4.14    1.19
   5  -1 -10    4.64    1.22
   5  -1 -10    4.41    1.08
  -5   1  10    6.97    2.12
   5  -1 -10    4.74    1.05
   5   1 -10    4.86    0.76
   5   1  -9   67.41    2.79
   5  -1  -9   68.15    2.96
   5   1  -9   69.19    2.97
   5   1  -9   68.42    3.16
   5  -1  -9   66.78    3.42
   5  -1  -9   72.81    4.03
  -5   1   9   65.16    5.15
   5  -1  -9   65.44    3.16
   5  -1  -8   15.03    1.37
   5   1  -8   14.77    1.35
   5  -1  -8   15.56    1.69
   5  -1  -8   14.82    1.47
   5   1  -8   14.59    1.46
   5  -1  -8   14.70    1.54
   5  -1  -8   14.99    1.90
  -5  -1   8   12.93    2.08
   5  -1  -7 1033.83   10.45
   5  -1  -7  998.80   14.28
  -5   1   7  829.23   14.04
  -5   1   7  880.88   15.82
  -5  -1   7  893.03   14.95
   5  -1  -6   39.15    2.25
   5  -1  -6   35.51    2.73
  -5  -1   6   32.67    2.72
  -5   1   5   96.84    4.92
   5  -1  -5  103.51    4.31
   5   1  -5  113.54    4.68
  -5  -1   5   83.32    4.05
  -5  -1   5   95.13    4.34
   5  -1  -5  113.60    4.08
   5  -1  -4  574.97   10.45
   5   1  -4  540.98    9.87
  -5  -1   4  480.48   10.44
  -5   1   4  519.11   10.99
   5   1  -4  579.69    8.11
   5  -1  -4  537.85    9.08
   5   1  -3  277.44    6.77
   5  -1  -3  281.15    6.96
   5  -1  -3  267.36    6.47
  -5   1   3  259.97    7.47
   5   1  -2  746.42   10.43
   5  -1  -2  711.24   10.60
   5  -1  -2  740.60   10.73
  -5   1   2  713.00   12.18
   5   1  -2  755.69   10.53
   5  -1  -1  264.92    6.65
   5  -1  -1  271.89    2.43
   5   1  -1  265.45    6.52
   5   1   0  584.96    5.06
   5  -1   0  571.26   10.03
   5   1   1  113.60    4.56
   5   1   1  127.02    2.88
   5  -1   1  115.54    4.46
   5  -1   1  125.24    3.85
  -5  -1  -1  109.92    5.29
   5  -1   1  127.88    4.97
   5   1   2  355.14    8.05
   5  -1   2  410.61    6.32
   5   1   2  363.75    5.77
   5  -1   2  411.35    8.97
  -5  -1  -2  364.08    9.22
   5  -1   2  433.87    9.68
   5  -1   3  150.02    5.76
   5   1   3  132.14    5.07
   5  -1   3  138.28    5.51
   5   1   3  141.79    4.04
  -5  -1  -3  140.39    5.58
   5  -1   3  148.18    3.22
   5  -1   4  223.93    7.30
   5   1   4  228.27    5.70
   5  -1   4  224.90    2.74
   5  -1   4  223.62    7.30
   5   1   4  218.52    6.54
  -5  -1  -4  222.60    6.76
   5  -1   5  467.93   11.25
  -5  -1  -5  501.95    9.87
   5  -1   6  395.24   10.95
   5   1   6  374.15    9.89
   5  -1   6  451.41   10.54
  -5   1  -6  424.79    8.79
  -5   1  -6  409.18    6.68
  -5  -1  -7  579.37   10.53
  -5   1  -7  591.42    8.22
   5   1   7  625.43   12.59
  -5  -1  -7  651.92   11.49
   5  -1   7  552.48   13.56
   5   1   7  527.17   12.31
  -5   1  -7  650.21   10.98
   5  -1   7  615.80   12.53
   5  -1   8  561.98   14.54
  -5  -1  -8  549.56   10.60
  -5  -1  -8  596.17   11.15
  -5  -1  -8  603.95   10.02
   5   1   8  604.87   13.20
   5  -1   8  504.96   11.01
  -5   1  -8  545.05    9.87
  -5   1  -8  598.78   10.03
  -5  -1  -8  577.21   10.53
   5   1   8  528.28   13.00
  -5  -1  -9    1.41    0.72
  -5  -1  -9    2.47    1.00
  -5   1  -9    1.49    1.19
  -5  -1  -9    2.18    1.39
   5   1   9    2.53    1.27
  -5  -1  -9    2.55    1.00
  -5   1 -10  184.97    5.80
  -5  -1 -10  177.99    5.97
   5   1  10  178.24    8.38
  -5  -1 -10  171.22    6.46
   5  -1  10  174.43    8.97
  -5  -1 -10  154.02    6.32
  -5   1 -10  162.00    5.81
  -5   1 -11   12.56    1.81
  -5  -1 -11    8.24    1.69
  -5   1 -11   10.61    2.18
  -5  -1 -11    9.93    2.26
  -5   1 -12  210.57    6.64
  -5   1 -12  200.07    6.98
  -5  -1 -12  215.45    7.36
  -5   1 -13   15.48    2.07
  -5  -1 -13   14.36    2.20
  -5  -1 -13   11.34    2.47
  -5   1 -13   11.11    2.17
  -5   1 -14  204.51    6.37
  -5   1 -14  192.65    6.85
  -5  -1 -14  215.04    7.18
  -5  -1 -14  200.89    7.34
  -5   1 -15   59.55    3.31
  -5  -1 -15   65.18    3.82
  -5   1 -15   60.09    3.79
  -5  -1 -15   59.02    3.87
  -5   1 -16   58.81    2.96
  -5  -1 -16   60.70    3.35
  -5   1 -16   54.12    3.22
  -5  -1 -16   54.14    3.35
  -5   1 -17   34.78    1.98
  -5  -1 -17   38.62    2.36
  -5   1 -17   32.63    2.16
  -5  -1 -17   35.29    2.37
  -5   1 -18   64.39    2.23
  -5  -1 -18   82.49    2.56
   5   2 -16   53.45    1.78
   5  -2 -16   65.97    2.79
   5  -2 -15  154.74    3.40
   5   2 -15  163.67    3.78
   5  -2 -15  166.68    5.07
   5  -2 -14   16.16    1.21
   5   2 -14   17.10    1.54
   5  -2 -14   15.45    1.34
   5  -2 -14   16.42    1.88
   5  -2 -13   61.54    3.51
   5  -2 -13   60.27    2.45
   5  -2 -13   70.22    2.86
   5   2 -13   60.76    2.84
   5   2 -13   62.03    3.02
   5   2 -13   59.31    2.34
   5   2 -12    1.15    0.57
   5  -2 -12    1.22    0.62
   5  -2 -12    1.05    0.76
   5  -2 -12    1.31    1.01
   5   2 -12    0.78    0.75
   5  -2 -12    1.53    1.20
   5  -2 -11   74.98    3.00
   5  -2 -11   75.44    3.73
   5   2 -11   91.93    3.50
   5   2 -11   80.66    3.47
   5  -2 -11   85.30    4.07
   5  -2 -11   76.95    4.20
   5   2 -11   84.64    3.73
   5   2 -11   77.35    2.86
   5  -2 -10  127.57    3.89
   5  -2 -10  120.09    4.58
   5   2 -10  137.38    4.25
   5  -2 -10  132.25    4.23
   5   2 -10  134.82    4.64
   5  -2 -10  126.73    5.23
   5  -2 -10  122.37    4.79
  -5   2  10  143.60    8.28
   5   2 -10  136.30    4.41
   5   2 -10  133.95    3.61
   5   2  -9  652.22    9.03
   5  -2  -9  655.12    9.27
   5   2  -9  671.68    9.48
   5  -2  -9  627.99    9.98
   5  -2  -9  634.47   10.10
   5   2  -9  690.81   10.05
   5  -2  -9  677.58   12.63
   5  -2  -9  654.74   10.82
  -5   2   9  650.03   16.30
   5  -2  -8  239.86    5.27
   5  -2  -8  253.03    6.40
   5  -2  -8  237.60    5.79
   5   2  -8  252.05    5.41
   5   2  -8  269.30    5.11
   5  -2  -8  252.29    6.14
   5  -2  -8  251.01    5.70
   5   2  -8  247.02    5.65
   5   2  -8  268.23    6.15
   5  -2  -8  248.24    7.59
  -5   2   7  668.37   14.39
   5  -2  -7  687.39   10.07
   5  -2  -6  323.79    7.16
  -5   2   6  340.06    9.85
   5  -2  -5  974.30   11.96
  -5  -2   5  948.97   13.74
   5  -2  -4  661.17   11.73
  -5   2   4  633.21   12.66
   5  -2  -3 1545.18   16.46
   5  -2  -3 1743.47   18.63
  -5  -2   3 1615.34   20.29
  -5   2   3 1731.56   20.21
   5  -2  -2  105.71    4.42
   5  -2  -2  117.15    4.69
  -5   2   2  123.26    5.37
   5  -2  -1  731.59   11.66
  -5  -2   1  647.38   13.02
   5   2   0   16.07    1.09
   5  -2   0   15.98    1.70
   5  -2   1 1091.97   13.94
   5  -2   1 1043.83   12.45
   5   2   2  303.64    5.54
   5  -2   2  280.31    7.59
   5  -2   2  294.80    6.29
   5  -2   2  282.31    7.56
   5  -2   3 1061.90   15.75
   5   2   3 1039.85   11.71
   5  -2   3 1051.02   15.26
  -5  -2  -3 1020.59   16.36
   5  -2   4  177.70    4.24
   5   2   4  181.98    5.43
   5  -2   4  168.71    6.75
  -5  -2  -4  184.01    6.79
   5  -2   4  185.57    6.99
   5  -2   5  532.65   12.51
  -5  -2  -5  557.66   11.41
   5  -2   6    7.45    1.72
   5  -2   6    4.68    1.60
   5   2   7  876.44   15.32
   5  -2   7  848.95   17.84
  -5   2  -7  857.07   12.31
  -5  -2  -7  860.16   13.65
  -5  -2  -8  268.07    8.38
   5  -2   8  257.94   10.30
  -5  -2  -8  268.25    7.00
   5   2   8  267.43    9.16
  -5  -2  -8  252.19    7.95
  -5   2  -8  253.37    6.80
   5  -2   8  259.31    8.59
  -5  -2  -8  249.17    7.49
  -5  -2  -9  859.26   15.32
   5   2   9  907.10   18.18
  -5   2  -9  919.21   13.07
   5  -2   9  906.51   20.27
  -5  -2  -9  867.09   15.16
  -5  -2  -9  865.08   13.93
  -5  -2 -10  204.43    6.75
  -5  -2 -10  208.78    8.03
  -5   2 -10  201.04    6.52
  -5   2 -11    7.11    1.47
  -5  -2 -11    8.56    1.79
  -5   2 -11    7.34    1.75
  -5  -2 -11    4.97    2.08
  -5   2 -12   13.41    1.85
  -5  -2 -12   16.42    2.34
  -5   2 -12   12.67    2.15
  -5  -2 -12   13.41    2.55
  -5   2 -13  175.15    5.79
  -5  -2 -13  180.84    6.76
  -5  -2 -13  172.57    7.22
  -5   2 -13  173.28    6.33
  -5   2 -14   10.97    1.65
  -5  -2 -14   11.11    1.98
  -5   2 -14   12.18    2.14
  -5  -2 -14   11.50    1.39
  -5  -2 -14   11.65    2.40
  -5  -2 -15   88.14    2.89
  -5  -2 -15   90.34    4.43
  -5   2 -15   89.07    4.22
  -5  -2 -15   88.00    4.74
  -5  -2 -16   43.98    2.90
  -5   2 -16   42.00    2.72
  -5  -2 -16   42.74    3.04
  -5   2 -17    1.46    0.59
  -5  -2 -17    2.12    0.95
  -5   2 -17    2.08    0.86
   5  -3 -17   27.11    1.41
   5  -3 -16   40.55    2.16
   5   3 -15   11.60    1.09
   5  -3 -15   12.73    1.50
   5  -3 -15   12.25    0.98
   5   3 -14   19.65    1.60
   5  -3 -14   18.60    1.41
   5  -3 -14   20.80    2.05
   5   3 -14   19.34    1.30
   5   3 -13    1.29    0.62
   5  -3 -13    0.48    0.49
   5  -3 -13    1.31    1.17
   5  -3 -13    0.69    0.67
   5  -3 -13    0.25    0.95
   5  -3 -12   55.03    2.44
   5  -3 -12   49.22    2.59
   5   3 -12   57.23    3.09
   5  -3 -12   50.12    3.63
   5  -3 -12   53.73    3.43
   5   3 -12   49.64    2.35
   5  -3 -11   26.18    1.82
   5  -3 -11   21.14    2.27
   5  -3 -11   23.97    2.37
   5   3 -11   29.72    2.31
   5  -3 -11   26.05    2.58
   5   3 -11   24.59    1.76
   5  -3 -10    6.13    1.03
   5  -3 -10    6.71    1.44
   5   3 -10    7.63    1.34
   5  -3 -10    8.60    1.33
   5  -3 -10    5.80    1.54
   5   3 -10    5.89    1.31
   5  -3  -9   55.33    2.70
   5   3  -9   56.54    2.98
   5  -3  -9   57.90    3.23
   5  -3  -9   57.06    3.97
   5  -3  -9   52.96    3.36
   5   3  -9   58.78    3.13
  -5   3   9   51.49    4.83
   5   3  -9   58.14    2.57
   5   3  -8  271.58    6.30
   5   3  -8  270.77    5.50
   5  -3  -8  293.21    8.93
   5  -3  -8  276.65    7.03
   5   3  -8  274.46    6.48
  -5   3   8  259.98    9.95
   5  -3  -8  269.86    6.44
   5   3  -7  105.62    3.78
  -5   3   7  107.29    6.10
   5  -3  -7  116.89    5.70
   5  -3  -7  104.45    4.37
   5   3  -7  101.37    3.84
  -5   3   6   23.62    2.89
   5   3  -6   35.56    2.16
   5  -3  -6   43.06    3.09
   5   3  -6   27.41    2.02
   5  -3  -6   40.28    3.43
   5  -3  -5  436.38    9.50
   5  -3  -5  426.62   10.79
  -5   3   5  434.69   11.21
   5  -3  -4  121.86    5.42
  -5   3   4  133.67    6.13
  -5  -3   4  116.28    5.51
   5  -3  -3   36.68    3.04
  -5  -3   3   34.55    3.14
  -5   3   3   36.33    3.23
   5  -3  -2   70.30    4.07
   5  -3  -2   71.81    4.14
  -5   3   2   67.45    4.21
   5  -3  -1   88.34    4.55
   5  -3  -1   84.39    3.30
   5  -3  -1   87.08    4.44
  -5  -3   0    3.15    1.21
   5  -3   0   12.56    1.86
   5  -3   0   15.28    1.68
   5  -3   0    2.72    1.08
   5  -3   1  496.92    9.88
   5  -3   1  455.79    9.71
   5   3   1  565.81    8.08
  -5  -3  -1  412.63   10.92
   5  -3   1  502.90   11.01
   5   3   2  104.27    3.74
   5  -3   2  105.84    5.25
   5  -3   3   12.53    2.02
   5   3   3   14.09    1.62
   5  -3   3   15.55    1.80
   5  -3   3   13.12    1.93
   5  -3   4  708.82   14.29
   5   3   4  738.50   11.82
   5  -3   5   36.52    3.59
   5  -3   5   31.18    3.44
  -5  -3  -5   25.23    2.73
   5  -3   6  110.56    6.42
   5  -3   6  150.88    7.58
  -5  -3  -7  714.02   14.73
   5   3   7  680.52   10.13
   5  -3   7  863.13   17.71
  -5  -3  -7  687.86   11.91
   5   3   7  678.92   14.59
   5  -3   7  714.25   16.72
  -5  -3  -7  671.89   14.06
  -5  -3  -7  800.43   12.59
  -5  -3  -7  758.53   14.53
  -5  -3  -8    6.12    1.33
  -5  -3  -8    3.16    1.20
   5  -3   8    4.75    2.17
   5   3   8    2.81    0.95
   5   3   8    6.87    1.85
  -5  -3  -8    4.16    1.36
  -5  -3  -8    1.98    1.69
  -5  -3  -8    4.06    1.52
   5   3   9   44.61    2.71
  -5  -3  -9   51.28    3.56
  -5  -3  -9   42.54    4.13
  -5  -3  -9   54.95    3.27
  -5  -3  -9   51.81    3.79
  -5  -3 -10   71.77    4.35
  -5   3 -10   72.20    4.02
  -5  -3 -10   63.98    5.09
  -5  -3 -10   71.47    3.61
  -5  -3 -11  186.18    6.05
  -5   3 -11  189.70    6.60
  -5  -3 -11  173.50    7.96
  -5  -3 -12   33.16    3.10
  -5   3 -12   25.50    2.81
  -5  -3 -12   26.62    3.43
  -5  -3 -12   29.68    2.48
  -5   3 -13  225.44    6.96
  -5  -3 -13  236.64    7.76
  -5  -3 -13  220.73    8.52
  -5  -3 -13  236.49    6.07
  -5   3 -14  107.26    3.96
  -5  -3 -14  116.47    5.26
  -5   3 -14   95.70    4.45
  -5  -3 -14  120.70    4.17
  -5  -3 -14  106.49    5.57
  -5   3 -15    3.72    0.94
  -5  -3 -15    4.07    1.39
  -5  -3 -15    3.59    0.89
  -5   3 -15    2.19    1.29
  -5  -3 -15    2.63    1.53
  -5   3 -16  158.75    3.52
  -5   3 -16  162.09    4.60
  -5  -3 -17    7.16    1.08
  -5   3 -17    6.49    0.99
   5  -4 -16    6.99    0.92
   5  -4 -15    5.11    0.58
   5  -4 -15    6.42    1.06
   5   4 -15    4.69    0.57
   5   4 -14   81.58    2.84
   5  -4 -14   76.86    3.41
   5  -4 -14   77.47    2.45
   5   4 -14   77.83    2.40
   5  -4 -13  144.37    3.25
   5  -4 -13  144.71    3.81
   5  -4 -13  143.34    4.91
   5  -4 -13  149.67    5.35
   5   4 -13  146.57    3.73
   5  -4 -12  460.86    6.59
   5  -4 -12  452.72    7.46
   5  -4 -12  447.43    8.97
   5  -4 -12  467.59    9.90
   5  -4 -11  228.39    5.11
   5   4 -11  246.39    6.42
   5  -4 -11  233.08    7.17
   5   4 -11  223.98    5.15
   5  -4 -10  411.65    7.20
   5  -4 -10  408.49    7.85
   5  -4 -10  386.31    8.42
   5  -4 -10  401.10    9.26
   5   4 -10  429.00    8.70
   5   4 -10  385.25    6.89
   5  -4  -9   43.59    2.51
   5  -4  -9   45.07    2.88
   5   4  -9   52.33    3.22
   5  -4  -9   43.19    3.19
   5   4  -9   46.31    2.52
   5   4  -8  245.34    6.64
   5   4  -8  250.09    5.47
   5   4  -7  223.24    5.23
   5  -4  -7  204.45    6.99
   5  -4  -7  222.71    5.70
   5   4  -7  192.19    5.73
   5  -4  -7  220.60    8.45
   5  -4  -7  210.55    6.08
   5  -4  -7  203.93    5.34
  -5   4   7  213.01    8.98
   5   4  -6  266.97    5.77
   5  -4  -6  252.95    5.85
   5   4  -6  207.95    5.80
   5  -4  -6  254.49    6.40
   5  -4  -6  228.05    5.64
  -5   4   6  228.87    8.95
   5  -4  -6  245.93    8.87
   5  -4  -6  250.50    8.19
   5  -4  -5   91.22    5.10
   5   4  -5  108.27    3.63
   5   4  -5  122.76    4.37
   5  -4  -5   85.92    5.16
   5  -4  -5   97.53    3.88
  -5   4   5  122.98    4.93
   5  -4  -5   80.83    3.41
  -5   4   5   87.22    5.46
  -5  -4   5   71.02    4.73
   5   4  -4  250.12    6.01
   5   4  -4  284.77    5.67
   5  -4  -4  270.99    9.21
  -5  -4   4  230.15    8.81
  -5   4   4  255.22    8.83
   5  -4  -3   93.98    4.85
  -5  -4   3   90.28    5.62
  -5   4   3  110.44    5.69
   5  -4  -3  110.93    5.89
   5  -4  -2 1080.62   16.19
   5  -4  -2 1269.74   19.39
  -5  -4   2 1156.54   20.52
  -5   4   2 1205.85   18.02
   5  -4  -1  491.56   11.06
   5  -4  -1  522.45   12.28
   5  -4   0 1071.38   17.05
   5  -4   0 1081.93   17.30
  -5  -4   0 1046.89   20.13
   5  -4   1   56.19    4.16
   5  -4   1   59.66    3.63
  -5  -4  -1   51.56    4.55
   5  -4   2  656.89   14.52
   5  -4   2  695.14   13.06
   5  -4   3  236.59    8.76
   5  -4   3  232.42    8.17
  -5  -4  -3  219.59    9.07
   5   4   4  798.17   10.91
   5  -4   4  815.22   15.97
   5  -4   4  888.52   17.42
   5   4   4  893.94   14.53
  -5  -4  -4  812.78   14.30
  -5  -4  -4  746.92   16.60
   5   4   5  625.25   10.01
   5   4   5  708.61   13.88
  -5   4  -5  610.03    9.07
   5  -4   5  713.21   15.75
  -5  -4  -5  668.44   12.77
   5  -4   5  706.39   12.08
  -5  -4  -5  591.43   14.36
  -5  -4  -6  156.31    7.41
   5  -4   6  145.74    7.52
  -5  -4  -6  133.50    7.13
  -5   4  -6  143.08    4.48
   5  -4   6  178.36    8.55
   5  -4   6  173.05    6.42
  -5  -4  -7   50.54    4.41
   5   4   7   61.67    3.25
  -5  -4  -7   41.85    3.33
   5  -4   7   47.02    4.68
  -5  -4  -7   48.60    4.79
  -5   4  -7   47.93    2.67
  -5  -4  -7   58.71    3.81
   5  -4   7   59.70    3.92
  -5  -4  -7   54.08    4.40
   5  -4   7   69.56    5.75
   5   4   8   16.77    1.80
  -5  -4  -8   17.29    2.39
  -5  -4  -8   18.65    2.24
   5   4   9    1.70    0.86
  -5  -4  -9    1.42    1.35
  -5  -4  -9    0.48    1.98
  -5  -4  -9    1.20    1.03
  -5  -4 -10  448.13   11.07
  -5  -4 -10  440.02   13.56
  -5  -4 -10  456.26    8.79
  -5  -4 -10  440.29    9.46
  -5  -4 -11  229.21    7.16
  -5   4 -11  226.73    5.95
  -5  -4 -11  207.20    7.50
  -5   4 -11  217.67    6.80
  -5  -4 -11  207.12    9.41
  -5   4 -12  316.47    6.80
  -5  -4 -12  318.64    9.00
  -5   4 -12  305.48    7.90
  -5  -4 -12  335.95    8.15
  -5   4 -13    3.67    0.98
  -5  -4 -13    3.28    1.48
  -5   4 -13    3.19    1.43
  -5  -4 -13    4.04    1.34
  -5   4 -14   42.82    2.18
  -5   4 -14   37.95    2.66
  -5  -4 -14   40.50    2.32
  -5   4 -15    5.24    0.75
  -5   4 -15    5.47    1.28
  -5  -4 -15    7.20    1.11
  -5   4 -16   59.20    2.45
   5  -5 -16   32.08    1.32
   5   5 -15    0.29    0.29
   5  -5 -15    0.06    0.49
   5  -5 -14    8.55    0.78
   5  -5 -14    9.45    1.20
   5   5 -14    9.39    0.87
   5  -5 -13    6.17    0.89
   5  -5 -13    5.18    1.07
   5  -5 -13    5.80    1.25
   5   5 -13    4.86    0.84
   5  -5 -12   33.84    1.70
   5  -5 -12   32.05    2.35
   5   5 -12   34.06    2.31
   5  -5 -12   30.21    2.55
   5  -5 -12   31.91    1.98
   5   5 -12   32.74    1.93
   5  -5 -11    6.75    1.01
   5  -5 -11    6.41    1.29
   5   5 -11    5.84    1.37
   5  -5 -11    6.66    1.50
   5   5 -11    6.49    1.12
   5   5 -10    0.62    0.83
   5  -5 -10    0.29    0.67
   5  -5 -10    0.31    1.11
   5   5 -10    0.35    1.09
   5  -5  -9   32.73    2.25
   5  -5  -9   33.44    2.48
   5   5  -9   35.36    2.86
   5   5  -9   36.49    2.48
   5   5  -8  174.31    5.88
   5  -5  -8  172.00    5.76
   5  -5  -8  163.37    4.89
   5  -5  -8  166.33    5.18
   5   5  -8  174.97    5.01
   5  -5  -7  158.37    4.90
   5  -5  -7  157.85    5.46
   5  -5  -7  155.18    4.93
   5   5  -7  166.23    4.78
   5   5  -6   17.19    1.83
   5  -5  -6   21.97    1.89
   5  -5  -6   22.79    2.10
  -5   5   6   28.33    2.72
   5  -5  -6   23.83    2.10
   5   5  -6   21.80    1.83
   5  -5  -5    5.59    1.48
   5   5  -5    6.07    1.18
   5  -5  -5    4.71    0.97
   5   5  -5    4.11    1.25
   5  -5  -5    5.63    1.20
   5  -5  -5    4.44    1.41
  -5   5   5    6.57    1.46
   5  -5  -5    4.67    1.09
  -5   5   5    5.92    1.94
   5   5  -4  281.28    6.38
   5  -5  -4  292.17   10.36
   5   5  -4  264.39    6.62
  -5  -5   4  240.45    7.89
   5  -5  -4  297.93    6.66
  -5  -5   4  241.63    8.63
  -5   5   4  261.92    9.41
  -5  -5   4  222.13    9.63
   5   5  -3  157.21    4.17
   5   5  -3  156.78    4.78
   5  -5  -3  137.25    6.35
   5  -5  -3  152.12    7.43
  -5   5   3  161.53    5.29
   5  -5  -3  130.72    4.73
  -5  -5   3  135.71    6.68
  -5  -5   3  128.64    7.61
   5   5  -2   48.27    2.40
   5  -5  -2   45.89    3.84
   5  -5  -2   49.40    4.33
   5   5  -2   45.65    2.73
   5   5  -2   43.59    2.54
  -5   5   2   42.94    2.76
   5  -5  -2   41.99    2.75
  -5  -5   2   43.05    3.84
  -5  -5   2   41.20    4.46
   5   5  -1   54.65    2.67
   5  -5  -1   46.03    3.74
   5   5  -1   54.62    2.93
  -5   5   1   54.16    2.96
   5  -5  -1   47.25    2.95
  -5  -5   1   58.57    4.47
  -5  -5   1   49.12    4.95
   5   5   0  178.79    4.93
   5  -5   0  173.06    7.32
   5   5   0  172.55    4.90
  -5   5   0  172.50    5.12
   5  -5   0  155.40    5.27
  -5  -5   0  179.73    7.73
  -5  -5   0  163.74    9.01
   5   5   1   14.79    1.56
   5  -5   1   11.84    2.16
   5   5   1   11.69    1.44
   5  -5   1   13.76    1.88
  -5   5  -1   11.88    1.49
   5  -5   1   12.56    1.63
  -5  -5  -1   11.40    2.27
  -5  -5  -1   18.35    3.16
   5   5   2    2.99    1.07
   5  -5   2    1.57    1.21
  -5  -5  -2    1.92    1.37
   5  -5   2    1.70    0.91
   5   5   2    2.36    0.89
   5  -5   2    0.95    1.03
  -5   5  -2    1.92    0.83
  -5  -5  -2    0.50    1.26
   5  -5   3  227.08    8.48
   5   5   3  220.82    6.03
   5   5   3  212.47    5.58
  -5  -5  -3  211.10    8.22
  -5  -5  -4  104.25    6.62
   5   5   4   95.28    4.12
   5   5   4   98.90    3.96
   5  -5   4   99.42    5.96
   5  -5   4  104.91    6.55
  -5   5  -4   90.00    3.66
   5  -5   4  104.49    4.90
  -5  -5  -4  103.90    5.79
  -5  -5  -5  390.03   12.62
  -5   5  -5  338.48    7.04
   5   5   5  380.50    8.18
   5  -5   5  367.19   11.84
  -5  -5  -5  382.10   10.86
   5  -5   5  427.52   13.20
   5  -5   5  421.78    9.98
  -5  -5  -5  339.26   12.25
   5   5   6   33.53    2.64
  -5   5  -6   34.42    2.35
  -5  -5  -6   36.99    3.53
   5  -5   6   43.22    3.43
  -5   5  -7   58.74    2.99
   5  -5   7   84.12    4.77
  -5  -5  -8   61.79    3.80
  -5  -5  -8   64.41    4.30
  -5  -5  -9  548.58   12.38
  -5  -5  -9  559.67   11.79
  -5  -5 -10   44.80    3.73
  -5  -5 -10   51.64    3.15
  -5  -5 -10   44.61    3.24
  -5   5 -11  213.17    5.22
  -5   5 -11  206.96    6.27
  -5  -5 -11  202.39    5.45
  -5  -5 -11  200.32    7.23
  -5   5 -12   75.17    3.70
  -5   5 -12   79.62    3.00
  -5  -5 -12   79.34    4.38
  -5  -5 -12   76.72    4.19
  -5  -5 -13   11.43    1.82
  -5   5 -13   13.05    1.17
  -5   5 -13    9.56    1.52
  -5  -5 -13   13.45    1.78
  -5  -5 -13   11.70    1.74
  -5  -5 -14   12.51    1.58
  -5   5 -14   11.98    1.47
  -5  -5 -14   11.96    1.39
  -5  -5 -15  126.44    3.52
  -5   5 -15  124.90    3.38
   5   6 -14   47.10    1.50
   5   6 -13    0.21    0.47
   5  -6 -13    0.38    0.42
   5  -6 -12   11.44    1.11
   5  -6 -12   11.43    1.30
   5  -6 -12    9.78    1.38
   5   6 -12   11.11    1.17
   5   6 -11    1.64    0.80
   5  -6 -11    2.22    0.63
   5  -6 -11    2.38    0.86
   5  -6 -10  105.01    3.84
   5  -6 -10  103.64    4.30
   5   6 -10  113.51    3.79
   5  -6  -9   29.82    2.08
   5  -6  -9   25.00    2.01
   5   6  -9   27.75    2.54
   5  -6  -9   24.67    2.28
   5  -6  -9   23.18    1.69
   5   6  -9   28.15    2.09
   5  -6  -8  403.72    7.61
   5   6  -8  389.10    8.98
   5  -6  -8  408.80    8.40
   5  -6  -8  372.58    7.41
   5   6  -8  427.95    7.79
   5  -6  -7   11.68    1.45
   5   6  -7    9.97    1.88
   5  -6  -7   12.25    1.74
  -5   6   7   14.13    2.13
   5  -6  -7   11.53    1.59
   5   6  -7   11.38    1.53
   5  -6  -6  547.66    8.60
   5   6  -6  455.14    9.79
   5  -6  -6  526.23    9.29
   5  -6  -6  476.85    9.16
   5   6  -6  512.95    8.64
   5   6  -5    2.77    1.07
   5   6  -5    2.38    1.26
   5  -6  -5    3.31    1.06
  -5   6   5    2.34    1.31
   5   6  -4  839.49   11.55
   5   6  -4  827.46   12.65
  -5  -6   4  725.54   15.12
   5  -6  -4  766.27   12.22
  -5  -6   4  728.11   16.19
   5   6  -3   25.16    2.20
  -5  -6   3   25.32    3.13
  -5   6   3   29.66    2.60
   5  -6  -3   30.25    2.54
  -5  -6   3   24.84    3.36
   5   6  -3   26.06    2.03
   5   6  -2  371.35    7.70
  -5  -6   2  351.29   11.85
  -5  -6   2  358.46   11.00
   5  -6  -2  371.24    8.67
   5   6  -2  384.91    7.22
  -5  -6   1    6.15    1.86
   5   6  -1    5.74    1.29
  -5   6   1    5.60    1.29
   5  -6  -1    5.84    1.39
  -5  -6   1    5.57    2.25
   5   6  -1    6.47    1.16
   5   6   0   96.82    3.53
   5   6   0   95.06    3.94
  -5  -6   0  105.05    6.14
  -5   6   0  109.68    4.44
   5  -6   0   90.84    4.44
  -5  -6   0  100.74    6.72
   5   6   1   31.93    2.42
  -5  -6  -1   30.37    3.53
  -5   6  -1   33.02    2.47
   5  -6   1   32.01    2.76
  -5  -6  -1   33.15    4.07
   5   6   2  195.69    5.68
  -5  -6  -2  162.27    7.61
  -5   6  -2  182.72    5.48
   5  -6   2  187.12    6.53
  -5  -6  -2  173.44    8.83
   5   6   3   17.99    1.89
  -5  -6  -3   17.17    2.79
  -5   6  -3   14.91    1.70
  -5  -6  -3   16.97    3.09
  -5  -6  -4  169.53    7.62
  -5   6  -4  163.64    5.08
  -5  -6  -4  179.37    8.66
  -5  -6  -5  140.31    6.76
  -5   6  -5  130.94    4.50
  -5  -6  -5  140.75    7.61
  -5   6  -6  355.38    7.22
  -5  -6  -6  388.07   11.78
  -5  -6  -6  380.58   10.69
   5  -6   7   26.84    2.83
  -5  -6  -7   25.86    2.84
  -5   6  -7   20.58    1.80
  -5  -6  -7   23.87    3.09
  -5  -6  -8  545.19   11.45
  -5  -6  -8  533.17   12.38
  -5  -6  -9  142.44    5.53
  -5  -6  -9  143.22    6.04
  -5   6 -10   43.98    2.24
  -5  -6 -10   48.20    3.92
  -5  -6 -10   49.10    3.02
  -5  -6 -11    0.57    0.68
  -5   6 -11    0.01    0.52
  -5   6 -11    0.09    0.98
  -5  -6 -11    0.73    1.44
  -5  -6 -11    0.07    0.76
  -5   6 -12   27.73    2.06
  -5  -6 -12   37.81    2.83
  -5  -6 -12   35.06    2.84
  -5   6 -13    4.02    0.99
  -5  -6 -13    6.62    1.33
  -5  -6 -13    5.48    1.29
  -5   6 -14   52.53    2.07
  -5  -6 -14   50.80    2.06
   5   7 -13    0.04    0.30
   5  -7 -12    3.37    0.54
   5   7 -12    2.97    0.65
   5  -7 -11   15.52    1.16
   5  -7 -11   16.01    1.25
   5   7 -11   16.84    1.29
   5   7 -10    2.45    0.82
   5  -7 -10    3.27    0.66
   5  -7 -10    1.79    0.63
   5  -7 -10    2.26    0.86
   5  -7  -9   22.77    1.63
   5  -7  -9   20.26    1.52
   5  -7  -9   19.78    1.74
   5   7  -9   19.38    1.69
   5  -7  -8  119.28    4.06
   5  -7  -8  114.34    3.76
   5   7  -8  119.32    3.99
   5  -7  -7    5.04    1.14
   5  -7  -7    6.02    1.17
  -5   7   7    6.34    1.52
   5   7  -7    6.13    1.20
  -5   7   6   39.60    3.04
   5  -7  -6   35.51    2.59
   5  -7  -5   60.04    3.46
   5   7  -5   63.39    3.07
  -5  -7   4  107.81    6.11
   5  -7  -4  105.50    4.70
  -5  -7   4  101.94    6.44
   5   7  -4  106.05    3.93
  -5  -7   3    4.31    1.90
  -5   7   3    7.47    1.56
   5  -7  -3    6.46    1.52
  -5  -7   3    3.31    1.98
   5   7  -3    6.91    1.23
  -5  -7   2   46.99    4.43
  -5   7   2   54.54    3.42
   5  -7  -2   47.45    3.40
  -5  -7   2   46.62    4.89
   5   7  -2   50.09    2.67
   5   7  -1    1.11    0.75
  -5  -7   1    0.50    1.52
   5  -7  -1    1.44    1.21
  -5   7   1    1.32    1.10
  -5  -7   1    1.49    1.99
  -5  -7   0   40.82    4.40
  -5   7   0   44.23    3.04
   5  -7   0   43.95    3.35
  -5  -7   0   41.03    4.92
   5   7   1  168.58    5.12
  -5  -7  -1  171.06    8.60
  -5   7  -1  173.37    5.66
   5  -7   1  180.20    6.57
  -5  -7  -1  178.34    9.76
  -5  -7  -2    1.54    1.76
   5  -7   2    3.74    1.47
  -5   7  -2    0.24    0.88
  -5  -7  -2    0.15    2.08
  -5  -7  -3  137.68    7.61
  -5   7  -3  130.75    4.61
  -5  -7  -3  140.47    8.53
  -5   7  -4   91.70    3.78
  -5  -7  -4  106.00    6.64
  -5  -7  -4  103.31    7.19
  -5  -7  -5   14.83    3.04
  -5  -7  -5   18.53    2.96
  -5   7  -5   13.63    1.53
  -5   7  -6    3.78    0.94
  -5  -7  -6    3.22    1.58
   5  -7   6    5.41    1.50
  -5  -7  -6    4.18    1.84
  -5  -7  -7  108.38    5.52
  -5  -7  -7   97.27    5.77
  -5  -7  -9    3.30    1.25
  -5  -7  -9    5.03    2.04
  -5  -7  -9    4.65    1.44
  -5  -7 -10    2.81    0.91
  -5  -7 -10    1.51    1.50
  -5  -7 -10    1.05    0.98
  -5   7 -11   31.87    1.93
  -5  -7 -11   40.81    2.74
  -5  -7 -11   39.12    2.99
  -5   7 -12   15.28    1.25
  -5  -7 -12   18.63    1.74
  -5  -7 -12   20.96    1.94
  -5  -7 -13  157.95    3.68
   5   8 -11   19.28    0.97
   5  -8 -10   77.34    2.18
   5   8 -10   73.63    2.18
   5  -8  -9   16.91    0.96
   5  -8  -9   19.68    1.46
   5   8  -9   17.02    1.28
  -5   8   8   97.24    3.48
   5  -8  -8   90.29    2.74
   5   8  -7    1.75    0.80
   5  -8  -7    1.86    0.79
   5  -8  -7    1.87    0.76
  -5   8   7    1.96    1.01
  -5   8   6  184.91    5.55
   5   8  -6  161.56    4.22
   5   8  -5    0.80    0.74
   5  -8  -5    1.01    0.91
  -5   8   5    0.81    0.98
  -5  -8   4   21.88    2.80
  -5   8   4   21.51    2.13
   5  -8  -4   20.16    2.05
   5   8  -4   17.59    1.54
  -5   8   3   54.99    3.24
  -5  -8   3   57.56    4.72
   5  -8  -3   49.32    3.22
  -5  -8   3   49.65    4.87
   5   8  -3   47.63    2.36
  -5  -8   2  104.60    6.50
  -5   8   2   94.28    4.19
   5  -8  -2   91.53    4.45
  -5  -8   2   99.13    6.92
  -5  -8   1   36.30    4.11
  -5   8   1   35.87    2.65
   5  -8  -1   33.32    2.89
  -5  -8   1   36.69    4.73
  -5   8   0  479.72    9.11
   5  -8   0  505.19   10.45
  -5  -8   0  498.86   15.90
  -5  -8  -1   71.88    5.91
  -5   8  -1   67.99    3.39
   5  -8   1   75.28    4.22
  -5  -8  -1   74.06    6.47
  -5  -8  -2  179.45    8.90
  -5   8  -2  171.95    5.10
  -5  -8  -2  185.46    9.66
  -5  -8  -3   40.95    4.38
  -5  -8  -3   43.45    4.87
  -5  -8  -4   95.00    6.24
  -5   8  -4   94.07    3.46
  -5  -8  -4  101.57    6.78
  -5  -8  -5    3.13    1.77
   5  -8   5    5.20    1.35
  -5   8  -5    2.34    0.75
  -5  -8  -5    3.51    2.00
  -5  -8  -6  160.59    6.68
  -5  -8  -6  155.04    7.34
  -5  -8  -7    3.06    1.46
  -5  -8  -7    2.92    1.83
  -5  -8  -7    2.20    1.52
  -5  -8  -8    9.74    2.22
  -5  -8  -8    8.57    1.58
  -5   8  -9   33.57    1.76
   5   8   9   35.64    1.88
  -5   8 -10   36.69    1.59
  -5  -8 -10   59.75    3.23
  -5  -8 -11    6.81    1.13
   5  -9  -8   53.00    1.70
   5  -9  -6    4.60    0.79
   5  -9  -6    4.29    0.76
  -5   9   5    2.83    0.92
   5  -9  -5    3.07    0.83
   5  -9  -4    1.54    0.85
  -5   9   4    1.58    0.86
  -5  -9   3   78.94    4.37
  -5   9   3   74.74    3.20
   5  -9  -3   75.49    3.43
   5   9  -2   35.55    1.70
  -5   9   2   33.61    2.26
   5  -9  -2   36.39    2.56
   5   9  -1   48.01    2.19
  -5   9   1   45.05    2.56
   5  -9   0    3.69    1.19
  -5   9   0    3.04    0.97
  -5  -9  -1    0.21    1.67
   5  -9   1    1.70    1.05
  -5   9  -1    0.67    0.74
  -5  -9  -1    0.56    1.94
  -5  -9  -2    0.57    1.47
  -5  -9  -2    0.71    1.62
  -5   9  -2    0.65    0.66
  -5  -9  -2    1.08    1.98
  -5  -9  -3    0.76    1.54
   5  -9   3    0.87    0.90
  -5  -9  -3    0.20    1.60
  -5   9  -3    0.69    0.64
  -5  -9  -3    0.72    1.70
  -5  -9  -4  192.38    7.00
  -5  -9  -4  172.73    7.19
  -5   9  -4  142.38    3.47
   5  -9   4  220.51    5.45
  -5  -9  -4  168.02    7.58
  -5  -9  -5   27.91    2.86
   5  -9   5   24.70    1.56
  -5  -9  -5   25.47    3.02
  -5  -9  -6   29.92    2.58
   5   9   6   21.36    1.58
  -5  -9  -7   42.79    2.81
  -5  -9  -7   46.02    2.67
  -5  -9  -8    0.29    0.80
  -5  10   2   50.52    1.95
   5 -10  -2   63.11    2.37
  -5  10   1   20.18    1.28
   5 -10  -1   28.45    1.69
  -5  10   0    4.60    0.70
   5 -10   0    7.70    1.01
  -5  10  -1   13.74    0.98
   6   0 -16   88.08    2.26
   6   0 -16  104.67    2.95
   6   0 -15    0.35    0.60
   6   0 -15    0.16    0.68
   6   0 -14  131.84    3.51
   6   0 -14  126.15    3.66
   6   0 -13    0.20    0.61
   6   0 -12  163.53    4.73
   6   0 -12  167.31    5.50
   6   0 -11    0.31    0.65
   6   0 -11    0.02    0.75
   6   0 -11    0.88    0.90
   6   0 -10    7.67    1.16
   6   0 -10    7.96    1.45
   6   0 -10    8.98    1.35
   6   0  -9    0.58    0.75
   6   0  -9    0.44    0.82
   6   0  -9    1.69    0.95
   6   0  -8 1159.96   11.81
   6   0  -8 1178.88   12.32
   6   0  -8 1144.00   13.09
   6   0  -8 1178.55   17.07
   6   0  -7    1.16    0.83
   6   0  -7    0.56    0.87
   6   0  -7    0.30    0.80
   6   0  -7    0.57    0.88
  -6   0   7   -0.05    1.11
   6   0  -6 3732.53   21.90
   6   0  -6 3713.11   27.36
  -6   0   6 3096.10   29.92
  -6   0   6 3205.32   31.23
  -6   0   5    0.28    0.84
   6   0  -5    0.06    0.66
   6   0  -5    0.20    0.59
  -6   0   5   -0.38    1.12
   6   0  -4 1102.39   14.02
   6   0  -4 1095.60   13.01
  -6   0   3    0.05    1.00
   6   0  -3    0.08    0.69
   6   0  -2 2543.18   21.17
  -6   0   2 2495.07   26.37
  -6   0   1    0.04    0.98
   6   0  -1    0.29    0.75
   6   0  -1    0.08    0.52
   6   0   0  847.95   10.02
  -6   0   0  823.50   14.55
  -6   0  -1    1.66    0.91
   6   0   1    2.28    0.94
   6   0   1    0.23    0.26
   6   0   1    0.58    0.45
   6   0   2  139.97    3.57
   6   0   2  154.77    5.85
  -6   0  -2  146.72    6.07
  -6   0  -3    0.15    0.67
   6   0   3    1.58    0.55
   6   0   3    0.74    0.76
   6   0   4  331.28    6.77
   6   0   4  307.38    8.77
  -6   0  -4  327.12    8.95
   6   0   4  325.98    9.18
  -6   0  -5    0.40    1.00
   6   0   5    0.43    1.19
   6   0   5    1.12    0.80
   6   0   6 3132.10   24.93
   6   0   6 2879.79   27.75
   6   0   6 2866.63   29.18
  -6   0  -6 3030.70   27.43
  -6   0  -7    0.35    0.86
  -6   0  -7    0.88    1.19
   6   0   7    0.10    1.20
   6   0   7    0.37    0.86
  -6   0  -7    0.75    0.78
  -6   0  -8  706.21   11.39
   6   0   8  753.64   14.46
  -6   0  -8  822.08   11.55
  -6   0  -8  711.07   12.89
   6   0   8  636.75   10.13
   6   0   9   -0.24    1.10
  -6   0  -9    0.03    0.93
  -6   0  -9    0.43    1.27
   6   0   9    0.10    0.99
  -6   0  -9    3.77    1.11
  -6   0 -10  572.13   11.24
  -6   0 -10  578.11   11.62
  -6   0 -11    1.18    1.11
  -6   0 -11   -0.11    1.43
  -6   0 -12   89.63    4.71
  -6   0 -12   86.33    4.95
  -6   0 -13    0.45    1.19
  -6   0 -13    1.16    1.64
  -6   0 -14   11.52    1.93
  -6   0 -14   11.35    2.11
  -6   0 -15    0.59    1.06
  -6   0 -15    0.69    1.29
  -6   0 -16   65.98    3.11
  -6   0 -16   63.43    3.27
  -6   0 -17    0.41    0.66
  -6   0 -17    0.35    0.85
   6  -1 -16    0.38    0.38
   6   1 -16    0.81    0.45
   6   1 -15    1.22    0.66
   6  -1 -15    1.06    0.78
   6  -1 -15    0.90    0.56
   6  -1 -14  181.19    3.97
   6  -1 -14  181.63    4.24
   6   1 -14  189.57    4.99
   6  -1 -14  185.41    5.46
   6  -1 -13    0.54    0.63
   6   1 -13    0.21    0.78
   6  -1 -13    0.86    0.97
   6   1 -13    0.24    0.74
   6  -1 -12    0.34    0.64
   6   1 -12    0.21    0.78
   6  -1 -12    0.28    0.77
   6  -1 -12    0.09    0.96
   6   1 -12    0.08    0.80
   6   1 -12    0.21    0.83
   6   1 -11    7.88    1.26
   6  -1 -11    9.03    1.38
   6   1 -11    9.55    1.43
   6  -1 -11    8.44    1.55
   6   1 -11    7.32    0.96
   6  -1 -10  341.43    6.58
   6   1 -10  354.43    6.88
   6  -1 -10  363.63    7.18
   6   1 -10  372.92    7.33
   6  -1 -10  348.48    7.78
   6   1 -10  354.42    5.71
   6   1  -9   51.60    3.04
   6  -1  -9   54.98    2.71
   6   1  -9   52.45    2.71
   6  -1  -9   53.50    2.85
   6   1  -9   54.20    2.84
   6  -1  -9   53.12    3.07
   6  -1  -9   48.29    3.53
  -6   1   9   64.36    5.69
   6  -1  -8    7.47    1.15
   6   1  -8    6.54    1.10
   6   1  -8    7.16    0.95
   6  -1  -8   10.27    1.39
   6   1  -8    5.73    1.20
   6  -1  -8    5.15    1.13
   6   1  -8    5.97    1.19
   6  -1  -8    6.34    1.46
   6  -1  -7   92.70    3.38
   6   1  -7   97.12    3.45
   6   1  -7   95.16    3.78
   6   1  -7   91.48    3.48
   6  -1  -7   94.76    3.70
   6  -1  -7   97.06    4.82
   6  -1  -7   95.68    3.53
  -6   1   7   89.68    5.75
   6  -1  -6  114.90    4.16
   6  -1  -6  112.42    5.10
  -6   1   6  102.40    5.80
  -6   1   6   94.71    5.71
   6  -1  -5  149.23    5.73
  -6   1   5  136.47    6.41
   6  -1  -4   18.43    1.87
   6   1  -4   17.27    1.63
   6  -1  -4   15.81    1.87
  -6  -1   4   13.29    2.12
   6   1  -3   71.11    3.42
   6  -1  -3   70.75    3.57
   6  -1  -2  696.14   11.57
   6   1  -2  689.54   10.84
   6  -1  -1   52.60    3.31
   6   1  -1   51.41    3.16
   6  -1  -1   47.76    2.67
  -6  -1   1   43.60    3.90
   6  -1   0  645.62   11.67
   6   1   0  600.79   10.92
   6  -1   0  603.17    4.91
   6   1   0  634.95    5.05
   6  -1   0  592.95    8.74
   6  -1   1  441.86   10.08
   6   1   1  450.50    9.66
   6   1   1  445.42    5.45
   6  -1   1  470.84    7.47
  -6  -1  -1  419.51   11.19
   6  -1   2   10.09    1.71
   6   1   2    9.32    1.61
   6   1   2    7.64    0.93
   6  -1   2   12.09    1.82
   6  -1   2    9.27    1.08
  -6  -1  -2    9.78    1.89
   6   1   3 1048.13   11.01
   6  -1   3 1141.93   16.90
   6   1   3  908.98   14.35
   6  -1   3 1059.23    8.92
  -6   1  -3  999.27   15.27
  -6  -1  -3  912.15   15.84
   6  -1   3  982.53   15.44
   6   1   4   18.35    1.70
   6  -1   4   19.93    2.71
   6  -1   4   19.07    2.37
   6   1   4   15.51    2.07
  -6   1  -4   18.37    2.19
  -6  -1  -4   14.24    2.04
   6   1   5  718.14   11.19
  -6  -1  -5  677.56   12.91
   6  -1   5  711.15   15.86
   6   1   6   77.12    4.15
   6  -1   6   83.87    5.56
  -6   1  -6   79.81    4.27
   6  -1   6   86.67    5.04
  -6  -1  -6   77.69    4.58
  -6  -1  -7  314.73    8.57
   6  -1   7  327.96    9.93
   6   1   7  312.56    8.78
   6  -1   7  304.56   10.78
  -6   1  -7  332.71    7.53
  -6  -1  -7  324.99    8.42
  -6   1  -7  332.55    8.98
  -6  -1  -7  358.68    8.23
  -6  -1  -7  331.81    9.37
   6   1   7  284.54    6.62
   6   1   8   15.39    1.63
  -6  -1  -8   18.35    2.27
   6   1   8   17.81    2.42
  -6   1  -8   22.07    2.26
   6  -1   8   19.65    3.19
   6  -1   8   17.59    2.36
  -6   1  -8   19.54    2.13
  -6   1  -8   17.09    1.79
  -6  -1  -8   17.51    1.96
  -6  -1  -8   16.38    2.11
   6  -1   8   15.55    1.71
  -6  -1  -9  272.92    8.33
   6  -1   9  280.31    9.60
  -6  -1  -9  278.20    7.66
   6   1   9  288.42    9.69
  -6  -1  -9  253.38    8.03
   6  -1   9  272.61   11.16
  -6  -1  -9  279.46    7.10
  -6  -1  -9  247.33    7.55
  -6   1 -10  672.62   11.85
  -6  -1 -10  670.70   12.07
  -6   1 -10  632.26   11.70
  -6  -1 -10  632.83   13.03
  -6   1 -11  244.98    7.64
  -6   1 -11  269.90    7.76
  -6  -1 -11  269.11    8.00
  -6  -1 -11  238.73    8.20
  -6   1 -12   48.93    3.48
  -6  -1 -12   49.77    3.73
  -6   1 -12   44.00    3.61
  -6  -1 -12   42.76    3.81
  -6   1 -13  125.80    5.25
  -6  -1 -13  126.22    5.65
  -6   1 -13  118.18    5.46
  -6  -1 -13  117.07    5.78
  -6  -1 -14    2.34    1.38
  -6   1 -14    1.40    1.30
  -6   1 -14    3.13    1.60
  -6  -1 -14    0.84    1.56
  -6   1 -15  129.01    4.61
  -6  -1 -15  133.15    4.96
  -6   1 -15  122.32    4.89
  -6  -1 -15  118.17    5.12
  -6   1 -16    1.20    0.83
  -6  -1 -16    1.36    1.00
  -6   1 -16    1.42    1.16
  -6  -1 -16    1.12    1.15
  -6   1 -17  114.45    3.05
  -6  -1 -17  120.32    3.52
  -6   1 -17  104.56    3.29
  -6  -1 -17  109.35    3.51
   6   2 -16   63.29    1.81
   6  -2 -16   77.20    2.72
   6  -2 -15   13.43    0.88
   6  -2 -15   14.37    1.12
   6   2 -15   15.17    1.23
   6  -2 -15   14.72    1.54
   6  -2 -14  134.94    3.20
   6  -2 -14  131.00    3.51
   6  -2 -14  136.38    4.74
   6  -2 -13   66.61    3.51
   6  -2 -13   63.78    2.53
   6   2 -13   67.63    3.06
   6   2 -13   61.40    2.24
   6  -2 -12  235.34    5.14
   6   2 -12  252.80    5.92
   6  -2 -12  239.09    5.58
   6   2 -12  248.45    6.04
   6  -2 -12  248.69    6.92
   6   2 -12  233.97    6.11
   6   2 -12  225.15    4.65
   6  -2 -11  260.32    5.66
   6   2 -11  282.34    6.47
   6  -2 -11  270.05    6.22
   6   2 -11  282.84    6.65
   6  -2 -11  273.33    7.31
   6   2 -11  275.39    6.80
   6   2 -11  260.86    5.24
   6   2 -10 1499.75   14.68
   6   2 -10 1408.89   15.34
   6  -2 -10 1448.36   14.45
   6   2 -10 1482.69   15.07
   6  -2 -10 1439.61   16.15
   6   2 -10 1444.58   12.05
   6  -2  -9  195.71    5.08
   6   2  -9  203.03    5.37
   6  -2  -9  205.18    5.52
   6   2  -9  203.13    5.58
   6  -2  -9  188.36    5.70
   6   2  -9  193.83    5.64
   6  -2  -9  197.24    6.19
   6   2  -9  205.62    4.73
   6  -2  -8  357.83    7.05
   6   2  -8  331.70    7.04
   6   2  -8  378.42    6.38
   6  -2  -8  378.69    7.39
   6   2  -8  361.46    7.29
   6  -2  -8  357.46    7.50
   6   2  -8  360.57    7.69
   6  -2  -8  373.03    9.77
   6  -2  -8  358.98    7.94
  -6   2   8  341.64   12.18
   6  -2  -7   20.12    1.69
   6   2  -7   19.87    1.70
   6  -2  -7   22.86    1.99
   6   2  -7   21.17    1.59
   6  -2  -7   20.71    1.83
   6   2  -7   19.61    1.76
   6  -2  -7   18.89    1.78
   6  -2  -7   19.43    2.33
   6  -2  -7   18.78    1.87
   6  -2  -6  192.67    4.99
   6   2  -6  178.49    4.67
   6   2  -6  211.91    4.58
   6   2  -6  181.33    4.82
   6  -2  -6  186.33    5.05
   6  -2  -6  191.59    6.63
  -6   2   6  177.34    7.97
   6  -2  -6  211.62    6.43
   6  -2  -5   30.92    2.90
  -6  -2   5   23.40    2.67
  -6   2   5   25.73    3.09
   6  -2  -5   27.23    2.41
  -6  -2   4  542.21   13.03
  -6   2   4  569.49   13.17
   6  -2  -3  107.30    4.90
  -6  -2   3   92.05    5.65
  -6   2   3   97.47    5.39
   6  -2  -2  205.88    6.46
   6  -2  -1  233.22    6.76
   6  -2  -1  222.84    6.79
   6  -2   0  496.49   10.48
   6  -2   0  509.17    9.50
   6   2   1  804.71    8.36
   6  -2   1  797.92   11.35
   6  -2   1  795.53   13.51
   6  -2   2 2524.44   19.52
   6   2   2 2411.92   16.23
   6  -2   2 2374.79   23.59
   6  -2   2 2469.95   25.06
   6   2   3  268.37    5.96
   6  -2   3  271.51    8.62
   6  -2   3  285.49    6.00
   6  -2   3  287.43    9.25
   6  -2   4  452.75   11.78
  -6  -2  -4  457.79   12.25
   6  -2   5   10.43    1.98
   6   2   5   11.24    1.67
   6  -2   5    9.61    2.05
  -6  -2  -5   10.19    1.87
   6   2   6   64.23    3.14
   6  -2   6   75.46    5.03
   6  -2   6   66.18    5.08
  -6  -2  -6   92.76    4.92
  -6   2  -6   67.99    3.98
   6   2   6   69.25    4.06
  -6  -2  -6   92.17    4.54
  -6  -2  -7    6.54    1.64
   6   2   7    5.77    1.14
  -6  -2  -7   12.76    1.75
  -6   2  -7   12.67    1.71
   6  -2   7    7.14    2.05
   6  -2   7    8.49    1.84
  -6   2  -7    6.93    1.22
  -6   2  -7    6.70    1.41
  -6  -2  -7   12.13    1.81
   6   2   7   11.27    1.95
  -6  -2  -7    5.34    1.41
   6  -2   7    6.49    1.28
   6   2   8  568.66    9.64
  -6  -2  -8  638.85   13.84
  -6  -2  -8  623.73   11.50
   6   2   8  688.20   14.55
  -6   2  -8  651.76   10.82
   6  -2   8  603.02   15.96
  -6  -2  -8  640.24   13.16
  -6   2  -8  642.40   12.10
  -6   2  -8  659.69   10.17
  -6  -2  -8  705.94   12.04
  -6  -2  -8  625.47   13.21
   6  -2   8  671.21   14.97
   6  -2   8  596.81   10.50
   6   2   9    8.75    1.43
  -6  -2  -9   11.48    1.92
  -6  -2  -9    9.27    2.22
  -6  -2  -9   11.05    1.72
  -6  -2  -9   12.38    1.97
  -6   2 -10   77.47    4.13
  -6  -2 -10   74.02    4.93
  -6  -2 -10   80.13    3.87
  -6   2 -11   13.96    2.04
  -6  -2 -11    7.38    1.75
  -6   2 -11   12.10    2.05
  -6  -2 -11    5.04    2.12
  -6   2 -12  223.05    6.77
  -6  -2 -12  236.01    7.72
  -6   2 -12  210.78    6.96
  -6  -2 -12  209.07    8.10
  -6   2 -13   48.36    3.13
  -6  -2 -13   53.45    3.73
  -6   2 -13   47.33    3.41
  -6  -2 -13   48.93    2.66
  -6  -2 -13   50.12    4.12
  -6   2 -14  469.66    8.80
  -6  -2 -14  495.87   10.24
  -6   2 -14  468.52    9.57
  -6  -2 -14  472.32    6.85
  -6  -2 -14  483.87   11.04
  -6  -2 -15   38.08    3.07
  -6   2 -15   39.19    2.43
  -6  -2 -15   40.62    2.88
  -6   2 -15   39.49    2.79
  -6   2 -16   14.23    1.32
  -6  -2 -16   16.10    1.70
  -6   2 -16   15.14    1.62
  -6  -2 -16   14.65    1.82
  -6  -2 -17    0.16    0.58
  -6   2 -17    0.51    0.60
   6  -3 -16    0.96    0.55
   6  -3 -15   29.92    2.00
   6  -3 -15   25.59    1.29
   6   3 -15   28.68    1.52
   6  -3 -14   76.02    2.19
   6  -3 -14   79.90    3.50
   6  -3 -14   77.59    2.56
   6   3 -14   69.43    2.10
   6  -3 -13   43.73    1.99
   6   3 -13   47.92    2.58
   6  -3 -13   43.23    2.85
   6   3 -13   41.29    1.90
   6   3 -12    1.86    0.70
   6  -3 -12    1.85    0.69
   6  -3 -12    2.38    0.91
   6  -3 -12    1.43    0.98
   6   3 -12    2.86    1.08
   6   3 -11    0.90    0.70
   6  -3 -11    0.07    0.62
   6  -3 -11   -0.22    0.90
   6  -3 -11    2.30    1.15
   6   3 -11    0.63    0.98
   6  -3 -10  248.52    6.23
   6   3 -10  246.31    6.40
   6  -3 -10  232.22    6.58
   6  -3 -10  242.91    7.23
   6  -3  -9   46.93    2.68
   6   3  -9   49.36    2.95
   6  -3  -9   47.82    2.89
   6   3  -9   53.91    3.19
   6  -3  -9   46.39    2.93
   6  -3  -9   47.34    3.29
   6   3  -9   45.14    2.43
   6  -3  -8    2.82    0.95
   6   3  -8    0.98    0.87
   6   3  -8    0.35    1.08
   6  -3  -8    1.17    0.89
   6  -3  -8    3.55    1.21
   6   3  -8    1.06    0.74
   6  -3  -7   18.02    1.75
   6   3  -7   15.41    1.74
   6   3  -7   15.94    1.79
   6  -3  -7   20.59    2.59
  -6   3   7   17.84    3.05
   6  -3  -7   22.94    2.24
   6   3  -6  250.57    6.03
   6   3  -6  309.00    6.00
   6   3  -6  262.57    6.18
   6  -3  -6  295.58    6.38
   6  -3  -6  278.09    6.60
   6  -3  -6  297.27    7.89
   6  -3  -6  305.14    9.37
   6  -3  -6  269.38    5.73
  -6   3   6  297.84   10.60
   6  -3  -5    4.20    0.98
  -6  -3   5    2.09    1.17
   6   3  -5    1.66    0.76
   6   3  -5    4.78    0.96
   6  -3  -5    2.67    0.98
   6   3  -5    1.86    0.83
   6  -3  -5    2.49    0.93
   6  -3  -5    3.56    1.40
   6  -3  -5    2.95    0.81
  -6   3   5    1.89    1.50
   6   3  -4  205.07    4.77
   6  -3  -4  185.54    7.16
   6  -3  -4  149.88    5.70
  -6  -3   4  149.05    7.15
  -6   3   4  171.98    7.50
   6  -3  -3  200.13    7.26
   6  -3  -3  178.47    6.39
  -6  -3   3  165.55    7.93
  -6   3   3  196.64    7.97
   6  -3  -2  313.45    8.58
  -6  -3   2  284.63   10.36
   6  -3  -1  284.83    8.09
   6  -3  -1  256.26    7.89
   6  -3   0  191.12    5.78
   6  -3   0  181.79    6.21
   6  -3   0  188.73    6.89
   6  -3   1   16.09    2.05
   6  -3   1   16.16    1.94
   6  -3   1   18.06    2.22
   6  -3   2  284.52    8.64
   6   3   2  298.13    6.54
   6  -3   2  274.36    7.34
   6   3   3   22.92    2.04
   6  -3   3   20.03    1.94
   6  -3   3   21.45    2.63
  -6  -3  -3   17.11    2.69
   6   3   4   59.82    3.07
   6  -3   4   69.70    4.78
   6   3   4   71.98    3.86
  -6  -3  -4   72.80    4.42
  -6  -3  -4   60.42    4.66
   6  -3   4   73.14    3.74
   6  -3   5   10.91    2.18
   6   3   5    7.65    1.32
   6   3   5    7.33    1.47
   6   3   5    8.58    1.64
   6  -3   5    7.56    1.91
  -6  -3  -5    7.01    1.90
  -6   3  -5    7.44    1.31
  -6  -3  -5    8.53    1.71
  -6  -3  -5    7.91    1.87
   6  -3   5    8.81    1.47
  -6  -3  -6  775.32   13.06
   6   3   6  824.75   12.41
   6   3   6  880.12   15.01
   6  -3   6  824.87   17.84
  -6   3  -6  875.45   11.79
   6  -3   6  910.31   13.33
  -6  -3  -7   18.25    2.77
   6   3   7   16.86    1.87
  -6  -3  -7   14.20    2.07
   6   3   7   12.99    1.91
  -6   3  -7   15.78    1.88
   6   3   7   19.74    2.61
   6  -3   7   17.04    2.96
   6  -3   7   30.90    3.56
  -6   3  -7   22.83    2.40
  -6   3  -7   14.20    1.63
  -6  -3  -7   14.24    2.04
  -6  -3  -7   19.65    2.78
   6  -3   7   24.02    2.37
  -6  -3  -7   12.78    2.52
   6   3   8  182.52    5.69
  -6  -3  -8  185.46    6.74
   6   3   8  210.86    6.58
  -6   3  -8  195.94    6.00
  -6  -3  -8  197.08    8.17
  -6   3  -8  203.79    5.58
  -6  -3  -8  219.79    7.12
   6  -3   8  202.50    6.37
   6   3   9  296.44    7.26
  -6  -3  -9  314.71    8.81
   6   3   9  343.61    8.25
  -6  -3  -9  317.28   10.61
  -6  -3  -9  352.91    8.75
  -6  -3 -10  152.81    6.21
  -6   3 -10  159.77    5.76
  -6  -3 -10  155.93    7.57
  -6  -3 -10  156.55    5.63
  -6   3 -11  302.20    7.59
  -6  -3 -11  284.50    8.46
  -6   3 -11  280.82    7.66
  -6  -3 -11  282.71   10.03
  -6  -3 -11  308.86    7.47
  -6   3 -12  142.43    5.05
  -6  -3 -12  140.41    5.91
  -6   3 -12  134.24    5.37
  -6  -3 -12  139.49    6.98
  -6  -3 -12  143.11    4.75
  -6   3 -13   80.02    3.66
  -6   3 -13   75.14    3.91
  -6  -3 -13   72.27    4.92
  -6   3 -14  161.50    5.24
  -6  -3 -14  173.72    6.56
  -6   3 -15   10.46    1.23
  -6  -3 -15   11.81    1.68
  -6   3 -15    9.17    1.54
  -6  -3 -15    9.77    0.99
  -6   3 -16   27.65    1.37
  -6  -3 -16   34.79    2.07
  -6   3 -16   31.45    1.91
   6  -4 -16    3.97    0.61
   6  -4 -15   23.58    0.97
   6  -4 -15   35.75    1.88
   6  -4 -14   14.25    1.08
   6  -4 -14   15.70    1.53
   6   4 -14   12.92    0.94
   6  -4 -13   33.90    1.60
   6  -4 -13   31.97    1.83
   6   4 -13   34.07    2.09
   6  -4 -13   35.96    2.39
   6   4 -13   32.84    1.69
   6  -4 -12   68.18    2.56
   6   4 -12   73.77    3.28
   6  -4 -12   65.35    3.29
   6  -4 -11    6.92    1.08
   6  -4 -11    5.38    1.19
   6   4 -11    5.45    1.30
   6  -4 -11    6.24    1.32
   6  -4 -11    5.93    1.48
   6   4 -11    5.97    1.05
   6  -4 -10    8.59    1.24
   6  -4 -10    7.78    1.42
   6   4 -10    8.26    1.61
   6  -4 -10   12.64    1.68
   6  -4 -10    7.52    1.59
   6   4 -10    8.00    1.19
   6   4  -9    4.94    1.45
   6  -4  -9    5.63    1.54
   6   4  -9    7.37    1.25
   6  -4  -8   64.18    3.28
   6   4  -8   70.51    3.18
   6   4  -8   66.79    3.73
   6  -4  -8   66.55    3.37
   6  -4  -8   64.92    3.68
   6   4  -8   69.95    3.16
   6   4  -7  567.08   10.57
   6  -4  -7  590.11    9.46
   6  -4  -7  595.45   10.17
   6   4  -6 1257.63   13.16
   6   4  -6 1066.40   13.74
   6  -4  -6 1176.51   12.98
   6  -4  -6 1005.96   15.46
   6  -4  -6 1187.66   13.86
   6  -4  -6 1063.33   12.31
   6  -4  -5 1194.59   18.19
   6   4  -5 1415.33   13.98
   6   4  -5 1202.74   14.06
   6  -4  -5 1346.07   13.56
   6  -4  -5 1309.89   20.74
   6  -4  -5 1390.22   14.45
  -6   4   5 1595.57   18.96
   6  -4  -5 1171.91   13.52
  -6   4   5 1194.19   20.81
   6   4  -4   14.60    1.28
   6   4  -4   13.07    1.51
   6  -4  -4   11.90    2.05
   6  -4  -4   13.96    1.47
   6  -4  -4   13.24    1.58
  -6   4   4   13.75    1.97
   6  -4  -4   10.51    1.50
  -6  -4   4    9.81    2.05
  -6  -4   4   12.78    2.45
  -6   4   4   11.06    2.30
   6   4  -3  587.55    8.12
   6  -4  -3  475.00   11.60
   6   4  -3  483.80    8.36
   6  -4  -3  517.30   12.58
   6   4  -3  553.10    8.51
   6  -4  -3  445.85    8.40
  -6  -4   3  484.03   12.38
  -6  -4   3  424.78   13.88
  -6   4   3  491.10   12.96
   6   4  -2  200.15    4.97
   6   4  -2  187.63    4.99
   6  -4  -2  177.99    7.17
   6   4  -2  179.12    4.98
  -6   4   2  171.80    5.58
  -6  -4   2  165.54    7.36
   6  -4  -2  162.97    5.16
  -6  -4   2  164.74    8.87
   6   4  -1  253.80    5.82
   6  -4  -1  235.32    8.44
   6  -4  -1  251.12    8.61
  -6   4   1  244.87    6.46
  -6  -4   1  232.99    8.75
   6  -4  -1  220.91    6.12
   6   4   0  369.53    7.21
   6  -4   0  429.65    8.88
   6  -4   0  352.57   10.85
   6  -4   0  405.50   10.73
  -6   4   0  382.32    7.96
  -6  -4   0  346.63   10.57
   6  -4   0  361.24    7.92
  -6  -4   0  307.73   12.20
   6   4   0  448.77    7.88
   6   4   1   59.08    3.04
   6  -4   1   78.06    4.49
   6  -4   1   63.83    4.23
   6  -4   1   63.23    4.53
  -6   4  -1   63.24    3.22
  -6  -4  -1   52.40    4.28
   6  -4   1   58.75    3.30
  -6  -4  -1   46.12    4.81
   6   4   2   81.95    3.69
   6   4   2   94.09    3.86
   6  -4   2   99.03    5.23
   6  -4   2   93.72    4.94
   6  -4   2   93.02    5.42
  -6   4  -2   80.27    3.61
  -6  -4  -2   71.34    4.97
   6  -4   2   92.23    4.17
  -6  -4  -2   71.93    5.95
   6   4   3  194.10    5.87
   6   4   3  217.39    5.98
   6  -4   3  220.46    8.19
   6  -4   3  227.86    7.50
   6  -4   3  205.48    8.08
  -6   4  -3  190.80    5.54
  -6  -4  -3  185.73    7.72
   6  -4   3  214.58    6.36
  -6  -4  -3  179.14    9.03
   6   4   4  163.67    5.42
   6   4   4  156.82    5.25
   6  -4   4  172.83    7.71
   6   4   4  190.31    6.84
   6  -4   4  185.29    8.12
  -6  -4  -4  155.42    7.06
   6  -4   4  167.38    5.87
  -6  -4  -4  145.76    8.15
   6   4   5 1025.35   13.75
   6   4   5  994.02   13.32
   6  -4   5 1013.58   19.40
   6   4   5 1110.15   17.32
  -6   4  -5  988.26   12.48
  -6  -4  -5 1122.74   18.24
   6  -4   5 1176.99   16.18
  -6  -4  -5  989.34   20.97
   6  -4   5 1258.16   22.53
   6   4   6  966.38   13.58
   6   4   6 1034.01   17.77
  -6   4  -6  916.24   12.28
  -6  -4  -6 1050.01   17.54
   6   4   6  936.26   13.01
  -6   4  -7  487.93    9.00
   6   4   7  509.26    9.69
   6   4   8   33.81    2.62
  -6  -4  -8   34.63    3.14
  -6   4  -8   34.14    2.34
  -6  -4  -8   38.22    3.36
   6  -4   8   42.12    3.12
   6   4   9  206.24    6.16
  -6  -4  -9  216.66    7.51
  -6   4  -9  230.17    6.64
  -6  -4 -10   95.93    5.07
  -6  -4 -10  103.91    4.37
  -6  -4 -10  102.91    4.83
  -6  -4 -11  148.20    6.13
  -6   4 -11  151.68    5.41
  -6  -4 -11  160.99    5.82
  -6  -4 -11  146.08    4.62
  -6  -4 -12   36.93    3.06
  -6   4 -12   37.16    2.84
  -6  -4 -12   41.65    2.85
  -6   4 -13    1.14    0.76
  -6  -4 -13    1.47    1.15
  -6   4 -13    0.99    1.07
  -6  -4 -13    0.74    0.90
  -6  -4 -14   24.33    2.14
  -6   4 -14   21.78    1.54
  -6   4 -14   20.44    1.83
  -6  -4 -14   23.65    1.84
  -6   4 -15    1.68    0.51
  -6  -4 -15    1.34    0.77
  -6   4 -15    1.06    0.83
  -6  -4 -15    1.33    0.56
  -6   4 -16    9.46    0.92
   6  -5 -15   11.95    0.91
   6  -5 -14   13.11    0.83
   6  -5 -14   14.00    1.20
   6   5 -14   12.03    0.81
   6  -5 -13   37.96    1.73
   6  -5 -13   38.61    2.15
   6   5 -13   41.37    2.06
   6   5 -12    2.27    0.74
   6  -5 -12    2.23    0.62
   6   5 -12    2.03    0.92
   6  -5 -12    2.13    0.87
   6  -5 -11   24.67    1.64
   6  -5 -11   24.89    1.89
   6   5 -11   26.15    2.18
   6   5 -11   24.32    1.73
   6  -5 -10    7.73    1.16
   6  -5 -10    7.58    1.37
   6  -5 -10    6.34    1.21
   6   5 -10    8.59    1.57
   6   5 -10    7.90    1.24
   6  -5  -9  128.23    4.47
   6   5  -9  141.76    5.36
   6  -5  -9  132.82    4.91
   6  -5  -8  130.19    4.69
   6  -5  -8  123.52    4.34
   6   5  -8  128.80    5.13
   6  -5  -8  124.45    4.74
   6  -5  -8  115.84    3.86
   6   5  -7   44.30    2.75
  -6   5   7   54.03    3.94
   6   5  -7   45.36    3.17
   6  -5  -7   46.60    2.70
   6  -5  -7   42.36    2.80
   6  -5  -7   41.08    2.58
   6   5  -7   45.21    2.67
   6  -5  -6    2.55    0.98
   6   5  -6    4.37    1.23
   6  -5  -6    4.62    1.03
   6   5  -6    4.43    1.37
   6  -5  -6    5.62    1.25
  -6   5   6    3.87    1.47
   6   5  -6    8.88    1.36
   6   5  -5   30.21    2.33
   6   5  -5   26.17    2.41
   6  -5  -5   33.56    2.23
   6  -5  -5   29.53    2.26
  -6   5   5   32.10    2.97
   6  -5  -5   27.23    2.34
   6   5  -4    2.09    1.05
  -6  -5   4    2.78    1.66
   6   5  -3   22.18    1.74
   6   5  -3   24.38    2.21
   6   5  -3   20.51    2.03
   6  -5  -3   19.45    2.06
  -6  -5   3   18.31    2.98
  -6  -5   3   15.70    3.14
  -6   5   3   24.35    2.45
   6   5  -2  661.92    9.30
   6   5  -2  673.53   10.30
   6  -5  -2  591.15   14.27
   6  -5  -2  648.17   15.24
   6   5  -2  619.12    9.99
  -6   5   2  621.49   11.26
   6  -5  -2  575.75   10.41
  -6  -5   2  573.07   14.87
  -6  -5   2  536.12   17.59
   6   5  -1   32.55    2.25
   6   5  -1   40.05    2.67
   6  -5  -1   33.55    3.58
   6   5  -1   34.44    2.47
  -6   5   1   34.39    2.76
   6  -5  -1   31.27    2.58
  -6  -5   1   32.52    3.85
  -6  -5   1   29.08    4.31
   6  -5  -1   28.46    3.31
   6   5   0   63.95    3.26
   6  -5   0   64.13    4.94
   6  -5   0   71.12    5.03
  -6   5   0   63.62    3.49
   6  -5   0   64.11    3.65
  -6  -5   0   58.31    5.01
   6   5   1   89.76    3.98
   6   5   1   78.84    3.71
   6  -5   1   86.21    5.68
   6  -5   1   88.60    5.48
  -6   5  -1   87.36    3.97
   6  -5   1   83.67    4.25
  -6  -5  -1   74.10    5.71
  -6  -5  -1   67.25    6.32
   6   5   2    4.53    1.18
   6   5   2    5.66    1.31
   6  -5   2    4.05    1.43
   6  -5   2    5.94    1.62
   6  -5   2    5.38    1.68
  -6   5  -2    6.39    1.30
   6  -5   2    5.40    1.37
  -6  -5  -2    4.38    2.01
   6   5   3  115.96    4.80
   6   5   3  112.75    4.45
   6  -5   3  131.94    6.52
  -6   5  -3  117.73    4.50
  -6  -5  -3  102.57    6.54
   6  -5   3  135.71    5.47
   6   5   4  402.09    8.90
  -6  -5  -4  381.84   12.25
   6   5   5  151.69    5.60
   6   5   5  130.38    4.77
  -6   5  -5  134.07    4.76
  -6  -5  -5  153.14    7.62
   6   5   6   88.46    4.23
  -6   5  -6   82.79    3.76
  -6  -5  -6   94.36    5.92
  -6   5  -7  202.38    5.68
   6  -5   7  253.56    7.75
  -6   5  -8  110.67    3.92
  -6  -5  -8  122.76    6.14
  -6   5  -9   20.83    2.14
  -6  -5  -9   19.01    2.21
  -6  -5  -9   19.60    2.51
  -6  -5 -10  309.01    8.25
  -6  -5 -10  309.49    7.46
  -6   5 -11   36.64    2.25
  -6  -5 -11   37.03    2.91
  -6  -5 -11   40.48    3.21
  -6   5 -11   36.54    2.56
  -6  -5 -11   36.62    2.30
  -6  -5 -11   29.77    2.33
  -6  -5 -12   34.82    2.56
  -6   5 -12   32.58    1.92
  -6   5 -12   30.55    2.23
  -6  -5 -12   36.22    2.70
  -6   5 -13   22.05    1.39
  -6   5 -13   20.80    1.75
  -6  -5 -13   27.59    2.19
  -6  -5 -13   27.80    2.00
  -6  -5 -13   21.51    1.77
  -6   5 -14   64.46    2.55
  -6   5 -15   25.39    1.34
   6  -6 -13  170.19    2.71
   6  -6 -13  168.11    3.31
   6   6 -13  173.59    2.95
   6  -6 -12    6.43    0.85
   6  -6 -12    5.40    0.87
   6   6 -12    5.76    0.83
   6  -6 -11  266.92    4.33
   6  -6 -11  252.01    5.10
   6   6 -11  257.14    4.82
   6  -6 -11  249.55    4.91
   6  -6 -10   16.21    1.41
   6  -6 -10   14.94    1.61
   6  -6 -10   15.97    1.50
   6   6 -10   13.44    1.44
   6  -6  -9  298.51    5.96
   6   6  -9  291.26    6.99
   6  -6  -9  276.76    5.80
   6   6  -9  286.89    5.93
   6   6  -8   10.18    1.79
   6  -6  -8    9.94    1.32
  -6   6   8   11.29    1.87
   6  -6  -8   10.17    1.25
   6   6  -8   10.87    1.50
   6   6  -7   60.50    3.58
   6  -6  -7   55.18    2.93
  -6   6   7   63.25    3.97
   6  -6  -7   54.43    2.91
   6   6  -7   56.42    3.02
   6  -6  -7   53.52    2.73
   6   6  -6   11.04    1.84
  -6   6   6   13.15    2.03
   6  -6  -6   10.59    1.54
   6   6  -6   11.69    1.61
   6   6  -5   74.55    3.69
  -6   6   5   72.88    4.27
   6   6  -5   81.85    3.62
   6   6  -4  121.00    4.64
  -6  -6   4  105.24    6.09
   6  -6  -4  115.48    4.89
  -6  -6   4   96.82    6.37
   6   6  -3  321.46    7.56
  -6  -6   3  267.88   10.01
  -6   6   3  335.33    8.62
   6  -6  -3  289.51    7.72
  -6  -6   3  265.62   10.78
   6   6  -3  295.62    6.68
  -6  -6   2   10.56    2.51
  -6   6   2   16.19    2.06
   6  -6  -2   12.66    1.93
  -6  -6   2   14.21    3.15
   6   6  -1  540.20    9.88
  -6  -6   1  499.48   14.21
  -6   6   1  554.56   10.63
   6  -6  -1  531.40   10.87
  -6  -6   1  500.71   15.66
   6   6   0   13.53    1.85
  -6   6   0   16.17    2.11
   6  -6   0   13.01    2.01
  -6  -6   0   14.67    3.34
   6   6   1  751.85   11.46
  -6   6  -1  793.77   12.22
   6  -6   1  841.52   13.91
  -6  -6  -1  718.57   19.01
   6   6   2   20.92    2.29
  -6   6  -2   19.55    2.11
   6   6   2   18.30    2.03
   6  -6   2   22.96    2.54
  -6  -6  -2   16.70    3.58
   6   6   3  578.13    9.84
  -6   6  -3  565.95   10.04
  -6  -6  -3  550.01   16.41
   6   6   4    5.55    1.26
   6  -6   4    6.36    1.62
  -6  -6  -4    6.49    2.59
  -6  -6  -5   61.85    4.91
  -6   6  -5   53.34    2.99
  -6  -6  -5   63.46    5.51
  -6  -6  -6   32.77    3.47
  -6   6  -6   26.69    2.14
  -6  -6  -6   33.43    3.93
   6  -6   6   37.74    3.11
  -6  -6  -7   18.44    2.57
  -6   6  -7   16.47    1.63
  -6  -6  -7   18.11    2.88
   6  -6   7   24.69    2.37
  -6   6  -9   78.55    3.45
  -6  -6  -9   87.71    4.29
  -6  -6  -9   84.15    4.69
  -6  -6 -10    1.80    0.95
  -6   6 -10    0.64    0.67
  -6   6 -10    1.48    1.04
  -6  -6 -10    2.02    1.63
  -6  -6 -10    1.29    1.06
  -6   6 -11   52.70    2.10
  -6  -6 -11   51.24    2.35
  -6  -6 -11   58.53    3.61
  -6  -6 -12    4.26    1.24
  -6  -6 -12    4.30    1.36
  -6   6 -13  156.45    3.43
  -6  -6 -13  183.73    3.98
   6   7 -12    5.43    0.60
   6   7 -11   12.54    1.01
   6  -7 -10   11.74    0.93
   6  -7 -10   11.47    1.18
   6   7 -10   11.73    1.13
   6  -7  -9   44.28    2.02
   6  -7  -9   43.16    2.33
   6   7  -9   41.24    2.10
   6  -7  -8   11.51    1.28
  -6   7   8    9.85    1.50
   6  -7  -8    8.64    1.04
   6   7  -8    9.71    1.24
   6   7  -7    0.48    0.76
   6  -7  -7    0.60    0.84
   6  -7  -7   -0.22    0.63
  -6   7   7   -0.14    0.92
  -6   7   6   30.46    2.64
   6  -7  -6   26.92    2.10
   6   7  -6   23.76    1.91
   6   7  -5    4.25    1.08
  -6  -7   4   84.68    5.33
  -6   7   4   93.58    4.48
   6  -7  -4   86.53    4.05
  -6  -7   4   80.17    5.76
   6   7  -4   83.66    3.47
  -6  -7   3   21.62    3.17
  -6   7   3   23.62    2.38
   6  -7  -3   22.73    2.32
  -6  -7   3   21.57    3.41
   6   7  -3   20.44    1.80
  -6  -7   2   66.88    5.36
  -6   7   2   63.91    3.75
   6  -7  -2   63.55    3.87
  -6  -7   2   61.69    5.73
   6   7  -2   57.34    2.86
   6   7  -1   32.87    2.53
  -6  -7   1   37.28    4.33
  -6   7   1   39.39    2.96
   6  -7  -1   42.36    3.22
  -6  -7   1   36.40    4.77
   6   7  -1   33.11    2.18
   6   7   0  104.22    4.18
  -6  -7   0  103.94    6.98
  -6   7   0  122.70    4.89
   6  -7   0  124.20    5.35
  -6  -7   0  106.47    7.74
  -6  -7  -1    0.14    1.86
   6  -7   1    0.56    1.27
   6   7   1    4.60    1.15
  -6   7  -1    1.01    1.03
  -6  -7  -1    0.41    2.15
   6   7   2  118.49    4.21
  -6   7  -2  119.52    4.56
  -6  -7  -2  109.72    7.22
  -6  -7  -2  104.01    7.66
  -6  -7  -3   96.23    6.60
  -6   7  -3  103.36    4.20
  -6  -7  -3   92.78    7.16
  -6  -7  -4    9.67    2.64
   6  -7   4   10.72    1.82
  -6  -7  -4    8.83    2.83
  -6  -7  -5   65.69    5.06
  -6   7  -5   57.71    2.87
  -6  -7  -5   70.68    5.66
  -6  -7  -6   28.92    3.25
  -6   7  -6   21.50    1.78
  -6  -7  -6   27.42    3.53
  -6  -7  -7    9.00    1.97
  -6   7  -7    7.77    1.01
  -6  -7  -7   10.05    2.20
   6  -7   7   11.02    1.43
  -6   7  -8   94.48    3.29
  -6   7  -9   14.17    1.09
  -6   7  -9   17.14    1.48
  -6  -7  -9   23.86    2.85
  -6  -7  -9   22.29    2.08
  -6  -7  -9   19.03    2.25
  -6  -7 -10  132.89    5.22
  -6  -7 -10  115.20    3.62
  -6   7 -11    3.37    0.71
  -6  -7 -11    5.59    1.22
  -6  -7 -11    5.92    1.37
  -6  -7 -12  129.71    3.44
   6   8 -10   14.62    0.82
   6  -8  -9   57.14    1.97
   6   8  -9   51.94    1.75
   6  -8  -8   39.10    1.64
   6  -8  -8   39.16    1.96
   6  -8  -7  262.64    4.87
  -6   8   7  262.82    5.53
   6   8  -7  246.25    4.49
   6  -8  -6   33.37    2.08
  -6   8   6   31.80    2.28
   6  -8  -6   26.20    1.76
   6   8  -6   28.98    1.74
   6  -8  -5  153.10    4.45
   6   8  -5  152.42    3.85
   6  -8  -4   98.80    3.88
   6   8  -4   92.23    3.02
  -6  -8   3  105.73    5.83
  -6   8   3   93.39    4.08
   6  -8  -3   89.56    3.89
  -6  -8   3  100.87    6.29
   6   8  -3   83.81    2.84
  -6  -8   2   20.86    3.18
  -6   8   2   19.75    2.00
   6  -8  -2   19.52    2.04
  -6  -8   2   21.63    3.53
  -6  -8   1  100.45    6.44
  -6   8   1   88.31    3.87
   6  -8  -1   91.67    4.16
  -6  -8   1   92.38    6.75
   6  -8   0    2.36    1.13
  -6   8   0    4.26    1.14
  -6  -8  -1   26.73    3.74
  -6   8  -1   28.25    2.17
   6  -8   1   28.91    2.51
  -6  -8  -1   23.57    3.87
  -6  -8  -2    0.60    1.74
   6  -8   2    1.41    1.01
  -6   8  -2    0.82    0.81
  -6  -8  -2    0.35    1.90
  -6   8  -3   44.84    2.47
  -6  -8  -3   46.04    4.43
  -6  -8  -3   46.29    4.83
  -6  -8  -4    9.52    2.40
  -6   8  -4    8.81    1.17
   6  -8   4   13.07    1.71
  -6  -8  -4    9.71    2.83
  -6  -8  -5  191.10    7.65
  -6  -8  -5  194.44    8.31
  -6  -8  -6   33.13    3.20
  -6   8  -6   24.53    1.43
  -6  -8  -6   31.76    3.43
   6  -8   6   32.57    1.94
  -6  -8  -7  124.31    5.58
  -6  -8  -7  121.13    4.99
  -6  -8  -7  115.79    5.33
  -6  -8  -8   83.85    3.59
  -6  -8  -8  156.86    5.59
  -6  -8  -9   47.02    2.11
   6   8   9   36.14    1.51
  -6  -8 -10   14.91    1.41
   6  -9  -6    6.20    0.82
   6  -9  -4    1.43    0.69
  -6   9   4    1.02    0.70
  -6   9   3   37.94    2.12
   6  -9  -3   37.19    2.07
  -6  -9   2    0.29    0.97
   6  -9  -2    0.40    0.70
   6   9  -2    0.21    0.34
  -6   9   2    0.29    0.74
   6   9  -1   13.90    1.06
  -6  -9   1   15.96    2.38
  -6   9   1   13.74    1.42
   6  -9  -1   15.21    1.53
  -6  -9   0    1.53    1.48
   6  -9   0    2.30    0.91
  -6   9   0    1.62    0.76
  -6  -9  -1    4.26    1.78
  -6   9  -1    3.65    0.89
   6  -9   1    4.62    1.09
  -6  -9  -1    3.36    1.99
  -6  -9  -2   50.53    3.68
  -6  -9  -2   53.19    4.04
  -6   9  -2   39.64    1.99
  -6  -9  -2   52.21    4.41
  -6  -9  -3   33.92    3.21
  -6   9  -3   25.20    1.50
  -6  -9  -3   32.88    3.01
   6  -9   3   34.40    2.01
  -6  -9  -3   33.33    3.48
  -6  -9  -4  178.36    6.02
  -6  -9  -4  189.61    6.56
  -6  -9  -4  186.45    6.98
   6  -9   4  186.55    3.86
  -6  -9  -5    7.47    1.53
  -6  -9  -6   35.53    2.40
  -6  -9  -6   37.33    2.37
   7   0 -16    0.03    0.33
   7   0 -15   48.58    1.95
   7   0 -14   -0.10    0.53
   7   0 -14    0.12    0.61
   7   0 -13   41.70    2.31
   7   0 -13   40.97    2.67
   7   0 -12    0.27    0.74
   7   0 -12    0.16    0.85
   7   0 -12    1.22    0.94
   7   0 -11  111.36    3.97
   7   0 -11  106.22    4.03
   7   0 -11  108.54    4.75
   7   0 -10    0.87    0.86
   7   0 -10   -0.05    0.94
   7   0 -10    0.23    0.93
   7   0  -9  113.06    4.07
   7   0  -9  106.35    4.13
   7   0  -9  114.83    4.63
   7   0  -8   -0.02    0.85
   7   0  -8    0.07    0.86
   7   0  -8    0.08    0.79
   7   0  -7 1291.95   13.09
   7   0  -7 1328.25   13.39
   7   0  -7 1312.56   14.56
   7   0  -6    0.58    0.90
   7   0  -6    0.20    0.89
   7   0  -6    0.24    0.83
   7   0  -6    2.20    0.86
   7   0  -6    0.61    1.00
   7   0  -5 2385.21   20.45
   7   0  -5 2350.01   22.77
  -7   0   4    2.21    1.52
   7   0  -4    1.92    1.02
   7   0  -4    1.34    0.98
   7   0  -3 1915.79   18.34
  -7   0   3 1963.52   26.26
   7   0  -2    0.16    0.68
   7   0  -1  276.85    6.65
   7   0  -1  276.75    7.99
  -7   0   0    1.03    1.07
   7   0   0    0.80    0.82
   7   0   0    0.26    0.51
  -7   0  -1   23.48    2.82
   7   0   1   37.94    3.09
  -7   0  -2    0.34    0.81
   7   0   2    0.08    0.63
   7   0   3  407.68    6.78
  -7   0  -3  415.07   11.40
   7   0   3  431.31   10.81
  -7   0  -4    0.39    1.02
   7   0   4    0.55    0.81
   7   0   4    0.35    0.57
   7   0   4    0.09    0.93
  -7   0  -4    0.41    0.97
   7   0   5 1999.60   18.43
  -7   0  -5 1960.07   24.27
  -7   0  -6   -0.04    1.08
   7   0   6    0.41    0.92
   7   0   6    0.09    1.00
  -7   0  -6    2.63    1.45
   7   0   6    0.31    0.84
  -7   0  -6    1.44    1.19
   7   0   7  671.13   12.58
  -7   0  -7  671.70   13.75
   7   0   7  677.49   10.72
  -7   0  -8    0.42    0.99
   7   0   8    0.25    0.90
  -7   0  -8    2.06    1.63
  -7   0  -8    2.71    1.18
  -7   0  -9  696.10   12.36
  -7   0  -9  671.93   12.38
  -7   0 -10    5.05    1.72
  -7   0 -11  209.47    7.03
  -7   0 -11  205.93    7.31
  -7   0 -12    8.04    1.83
  -7   0 -12    0.66    1.52
  -7   0 -13    1.65    1.22
  -7   0 -13    8.92    1.83
  -7   0 -14   -0.14    1.14
  -7   0 -14    0.38    1.31
  -7   0 -15    8.65    1.57
  -7   0 -15    9.95    1.49
  -7   0 -16    0.75    0.77
  -7   0 -16   -0.25    0.85
   7  -1 -16    0.06    0.30
   7   1 -16    0.15    0.34
   7  -1 -15   26.93    1.42
   7  -1 -15   30.86    1.92
   7  -1 -14    2.06    0.64
   7   1 -14    0.73    0.68
   7  -1 -14    0.48    0.84
   7  -1 -13   22.03    1.57
   7   1 -13   23.77    1.72
   7  -1 -13   21.90    1.71
   7   1 -13   24.04    1.87
   7  -1 -13   22.96    2.14
   7   1 -13   21.95    1.93
   7  -1 -12   12.18    1.36
   7   1 -12   11.80    1.45
   7  -1 -12   11.01    1.42
   7   1 -12   10.66    1.47
   7  -1 -12   11.42    1.69
   7  -1 -11   17.29    1.67
   7   1 -11   17.25    1.74
   7  -1 -11   17.54    1.82
   7   1 -11   21.78    2.04
   7  -1 -11   17.87    2.12
   7   1 -11   16.81    1.92
   7   1 -11   17.92    1.34
   7  -1 -10   50.38    2.70
   7   1 -10   48.76    2.78
   7  -1 -10   46.59    2.84
   7   1 -10   49.86    2.94
   7  -1 -10   50.57    3.25
   7   1 -10   44.75    3.09
   7  -1  -9   47.31    2.69
   7   1  -9   52.53    2.86
   7   1  -9   49.97    2.26
   7  -1  -9   50.93    2.93
   7   1  -9   50.82    2.93
   7  -1  -9   48.41    3.09
   7   1  -9   45.24    3.06
   7  -1  -8   90.56    3.67
   7   1  -8   94.84    3.69
   7   1  -8   90.04    3.07
   7  -1  -8   80.48    3.85
   7  -1  -8   89.40    4.04
   7   1  -8   90.24    4.12
  -7   1   8   83.42    6.31
   7  -1  -7   38.52    2.40
   7   1  -7   35.14    2.32
   7   1  -7   36.12    1.98
   7  -1  -7   37.82    2.47
   7   1  -7   38.98    2.45
   7  -1  -7   39.71    2.66
   7   1  -7   40.08    2.76
   7  -1  -7   39.85    3.20
  -7   1   7   39.21    4.21
   7  -1  -6   91.29    3.62
   7   1  -6   94.78    3.57
   7   1  -6   96.85    3.15
   7  -1  -6   95.24    3.62
   7   1  -6   95.67    3.58
   7  -1  -6   89.26    3.84
   7   1  -6   90.63    4.03
   7  -1  -6   97.82    4.84
   7  -1  -6  109.08    4.41
  -7   1   6   86.21    5.66
   7  -1  -5   23.65    1.89
   7   1  -5   23.42    1.81
   7   1  -5   23.43    1.63
   7  -1  -5   27.24    1.98
   7  -1  -5   30.06    2.42
   7  -1  -5   19.98    1.89
   7   1  -5   21.46    2.01
   7  -1  -5   27.21    2.56
  -7   1   5   25.39    3.17
  -7  -1   5   19.26    2.67
   7  -1  -4   16.93    1.59
   7  -1  -4   20.30    2.16
   7  -1  -4   18.02    1.60
   7  -1  -4   16.55    1.76
   7   1  -4   14.60    1.73
  -7   1   4   21.24    3.00
  -7  -1   4   15.35    2.51
   7  -1  -3  275.12    7.69
   7  -1  -3  261.47    7.34
   7   1  -3  262.72    7.04
   7  -1  -2   78.56    4.24
   7  -1  -2   74.96    3.76
  -7   1   2   73.69    5.05
   7  -1  -1  291.66    8.30
   7   1  -1  277.78    7.87
   7  -1  -1  296.93    7.14
  -7   1   1  284.02    9.55
   7  -1   0  104.56    5.12
   7   1   0   99.03    4.78
   7  -1   0  101.94    3.90
  -7   1   0   97.36    5.52
  -7  -1   0   87.45    5.73
   7  -1   1  189.95    6.94
   7   1   1  174.73    6.50
   7  -1   1  180.58    4.88
  -7   1  -1  157.12    6.88
  -7  -1  -1  155.29    7.43
   7   1   2  341.30    9.42
  -7   1  -2  330.91    9.72
  -7  -1  -2  315.71   10.22
   7  -1   3   21.58    1.64
   7   1   3   19.41    1.59
   7  -1   3   22.56    2.59
   7   1   3   17.85    2.28
  -7   1  -3   19.39    2.44
  -7  -1  -3   17.78    2.50
   7  -1   4  369.10    7.21
   7   1   4  428.32    8.04
   7  -1   4  368.17   10.41
   7  -1   4  439.14   11.36
  -7   1  -4  391.58   10.47
  -7   1  -4  413.83    8.77
  -7  -1  -4  353.18   10.48
  -7  -1  -4  373.25    9.22
   7  -1   4  382.99    7.72
   7   1   4  344.50    7.19
   7  -1   5  299.11    7.13
   7   1   5  323.31    7.59
   7  -1   5  272.47    9.46
  -7  -1  -5  274.81    9.27
  -7  -1  -5  300.63    8.22
   7   1   5  269.55    6.62
   7  -1   6  249.60    7.09
   7   1   6  267.18    7.45
  -7   1  -6  285.97    7.19
  -7  -1  -6  283.69    8.06
   7  -1   6  247.08    9.23
  -7   1  -6  256.73    8.78
  -7   1  -6  256.41    7.13
  -7  -1  -6  255.48    7.61
  -7  -1  -6  260.64    9.44
   7  -1   6  280.03    9.63
   7  -1   6  245.15    6.50
   7   1   6  235.99    6.30
  -7  -1  -7    9.61    1.88
   7  -1   7   10.79    1.76
  -7  -1  -7   20.37    2.21
   7  -1   7   10.43    2.04
   7   1   7   10.05    1.76
  -7   1  -7   11.21    1.84
  -7  -1  -7   12.24    2.09
   7  -1   7    9.89    2.32
  -7   1  -7   11.17    1.92
  -7   1  -7   11.78    1.72
  -7  -1  -7   12.60    1.92
  -7  -1  -7   10.83    2.07
   7  -1   7    9.58    1.50
   7   1   7   10.51    1.54
  -7  -1  -8  405.85    9.23
  -7   1  -8  386.77    8.72
  -7  -1  -8  401.62    9.99
  -7   1  -8  410.89    8.83
  -7  -1  -8  416.50    9.61
   7   1   9  610.77   10.28
  -7   1  -9  720.06   12.27
  -7   1  -9  761.90   11.62
  -7  -1  -9  755.41   12.77
   7  -1   9  632.77   10.57
  -7   1 -10  140.83    5.85
  -7  -1 -10  145.88    5.85
  -7  -1 -10  128.66    5.99
  -7  -1 -10  136.15    5.08
  -7  -1 -11  118.61    5.45
  -7   1 -11  112.04    5.19
  -7  -1 -11  111.16    5.57
  -7   1 -12  112.00    5.04
  -7  -1 -12  112.55    5.25
  -7   1 -12  100.40    4.86
  -7  -1 -12  102.15    5.24
  -7   1 -13   27.26    2.59
  -7  -1 -13   25.79    2.70
  -7   1 -13   22.08    2.50
  -7  -1 -13   21.11    2.71
  -7   1 -14  210.88    6.14
  -7  -1 -14  218.85    6.35
  -7   1 -14  190.76    5.98
  -7  -1 -14  196.88    6.42
  -7   1 -15    1.82    1.00
  -7  -1 -15    1.88    1.11
  -7   1 -15    1.93    1.18
  -7  -1 -15    4.09    1.36
  -7   1 -16  117.36    3.35
  -7  -1 -16  117.94    3.57
  -7  -1 -16  111.88    3.73
   7  -2 -16    0.68    0.45
   7  -2 -15  112.47    2.60
   7  -2 -15  129.02    3.66
   7  -2 -14   28.60    1.45
   7   2 -14   32.22    1.91
   7  -2 -14   28.99    2.10
   7  -2 -13  163.26    3.84
   7  -2 -13  163.25    4.16
   7   2 -13  178.26    4.65
   7  -2 -13  173.00    5.34
   7   2 -12   65.60    3.04
   7  -2 -12   60.53    2.91
   7   2 -12   66.26    3.15
   7  -2 -12   60.15    3.50
   7   2 -12   57.97    2.23
   7  -2 -11  313.37    6.31
   7   2 -11  339.35    7.03
   7  -2 -11  312.27    6.73
   7   2 -11  336.25    7.24
   7  -2 -11  325.90    8.05
   7   2 -11  307.03    5.46
   7  -2 -10  180.62    5.00
   7   2 -10  180.05    5.41
   7  -2 -10  191.11    5.49
   7   2 -10  184.68    5.57
   7  -2 -10  177.19    5.89
   7   2 -10  169.47    4.28
   7  -2  -9  723.35   10.24
   7   2  -9  751.44   10.84
   7   2  -9  728.84    8.96
   7  -2  -9  776.87   11.06
   7   2  -9  766.36   11.05
   7  -2  -9  742.76   11.63
   7  -2  -8   19.51    1.86
   7   2  -8   18.52    1.87
   7   2  -8   19.96    1.64
   7  -2  -8   17.72    1.91
   7   2  -8   15.06    1.98
   7  -2  -8   19.27    1.99
   7  -2  -7    4.47    1.20
   7   2  -7    3.70    1.14
   7   2  -7    6.98    1.29
   7  -2  -7    9.56    1.49
   7   2  -7    9.13    1.42
   7  -2  -7    7.21    1.34
  -7   2   7   10.41    2.50
   7  -2  -6   12.98    1.56
   7   2  -6   12.04    1.45
   7  -2  -6   13.24    1.72
   7   2  -6   11.90    1.28
   7  -2  -6   17.76    1.76
   7  -2  -6   12.69    1.58
   7  -2  -6   16.56    2.21
  -7   2   6   13.79    2.53
  -7   2   6   15.52    2.30
   7  -2  -6   10.79    1.16
  -7   2   6   11.96    2.57
   7  -2  -5   45.11    2.63
   7  -2  -5   59.10    3.63
   7  -2  -5   49.10    2.70
   7  -2  -5   47.98    2.74
   7  -2  -5   49.80    3.58
  -7   2   5   61.06    4.16
  -7  -2   5   34.32    3.61
   7  -2  -5   52.55    2.49
  -7  -2   4    3.70    1.53
   7  -2  -4    2.10    0.90
   7   2  -4    1.99    0.79
   7  -2  -4    2.18    0.74
   7   2  -4    2.66    0.83
   7   2  -4    3.85    0.93
   7  -2  -4    2.83    0.87
   7  -2  -4    2.16    0.94
   7   2  -3  533.99    7.84
   7  -2  -3  481.13   10.03
  -7   2   3  608.13   11.79
  -7  -2   3  399.17   13.13
   7  -2  -3  471.34    7.83
   7   2  -2  239.63    5.46
   7  -2  -2  222.70    7.12
   7  -2  -2  223.25    7.61
   7   2  -1  606.24    8.71
   7  -2  -1  567.12   10.91
   7  -2  -1  583.94   12.42
   7  -2   0  719.55   14.04
   7   2   0  690.72    9.61
   7  -2   0  699.83   11.61
   7   2   1  926.20   11.42
   7  -2   1  900.34   15.88
   7  -2   1  887.96   11.66
  -7   2  -1  924.27   13.18
  -7  -2  -1  779.23   14.77
  -7  -2  -1  767.90   18.01
   7  -2   1  823.55   11.04
   7   2   1  856.77   10.90
   7  -2   2  237.68    8.22
  -7   2  -2  232.52    6.58
  -7  -2  -2  205.98    7.55
  -7  -2  -2  196.69    9.02
   7  -2   2  199.86    5.52
   7   2   2  205.62    5.48
   7  -2   3 1165.86   18.67
   7   2   3 1095.05   12.19
   7  -2   3  981.40   16.71
  -7   2  -3 1076.75   14.05
  -7  -2  -3  962.11   15.95
  -7  -2  -3  931.72   19.25
   7  -2   3 1005.82   12.47
   7   2   3  898.81   11.70
   7  -2   4  182.21    7.67
   7   2   4   57.38    3.15
   7  -2   4   55.64    4.32
  -7   2  -4  148.74    6.44
  -7   2  -4   66.15    3.56
  -7  -2  -4   54.93    3.94
  -7  -2  -4   51.78    4.52
   7  -2   4  203.72    5.84
   7   2   4   47.03    2.83
   7   2   5    4.33    1.04
  -7  -2  -5    4.22    1.50
  -7  -2  -5    7.43    1.43
   7   2   5   11.28    1.60
  -7   2  -5    6.18    1.35
  -7  -2  -5    5.96    1.74
   7  -2   5    2.65    1.59
   7  -2   5    6.14    1.63
  -7   2  -5    4.92    1.36
   7  -2   5    5.45    1.22
  -7  -2  -5    4.85    1.57
  -7   2  -6    1.77    1.04
   7  -2   6    2.86    1.01
  -7  -2  -6    2.67    1.12
  -7   2  -6    2.87    1.16
  -7  -2  -6    2.48    1.53
   7  -2   6    2.39    1.24
   7   2   6    1.81    1.04
  -7   2  -6    6.84    1.37
  -7  -2  -7   20.98    2.27
   7   2   7   21.48    2.55
  -7   2  -7   25.17    2.33
  -7  -2  -7   27.00    3.06
  -7   2  -7   21.20    2.51
  -7   2  -7   23.96    2.23
  -7  -2  -7   32.49    3.04
   7  -2   7   21.90    2.96
   7  -2   7   24.05    2.27
   7   2   8   37.07    2.68
  -7  -2  -8   38.30    3.11
  -7   2  -8   45.64    3.08
  -7   2  -8   42.01    2.89
   7  -2   8   38.69    2.79
   7   2   9   32.55    2.57
  -7  -2  -9   30.77    2.86
  -7   2  -9   29.04    2.61
  -7  -2  -9   28.60    3.24
  -7   2  -9   39.38    2.67
  -7  -2  -9   36.14    3.00
   7  -2   9   27.17    2.28
  -7  -2 -10   72.42    4.29
  -7   2 -10   65.31    3.80
  -7  -2 -10   65.18    4.71
  -7  -2 -10   67.08    3.74
  -7   2 -11   55.88    3.63
  -7  -2 -11   48.21    3.52
  -7  -2 -11   48.75    4.05
  -7   2 -12   10.92    1.84
  -7   2 -12   10.40    1.95
  -7  -2 -12    8.55    2.24
  -7   2 -13  261.10    6.78
  -7  -2 -13  256.25    7.32
  -7   2 -13  243.13    6.75
  -7  -2 -13  251.79    5.07
  -7  -2 -13  246.41    7.80
  -7   2 -14   57.48    3.01
  -7  -2 -14   58.47    3.32
  -7   2 -14   52.92    3.14
  -7  -2 -14   61.36    3.76
  -7   2 -15   91.10    3.25
  -7  -2 -15   98.09    3.70
  -7  -2 -15   90.69    3.93
  -7   2 -16    0.91    0.53
  -7  -2 -16    1.10    0.65
  -7   2 -16    0.61    0.69
   7  -3 -16    1.60    0.43
   7  -3 -15    6.35    0.63
   7  -3 -15    8.72    1.04
   7  -3 -14   58.11    1.80
   7   3 -14   63.98    2.41
   7  -3 -14   66.77    2.86
   7  -3 -13   42.41    1.87
   7  -3 -13   42.29    2.10
   7   3 -13   43.05    2.32
   7  -3 -13   41.28    2.55
   7   3 -13   39.45    1.68
   7  -3 -12   18.17    1.47
   7  -3 -12   20.66    1.73
   7   3 -12   20.68    1.91
   7  -3 -12   19.51    2.01
   7   3 -12   16.93    1.29
   7  -3 -11   47.36    2.68
   7   3 -11   50.00    2.99
   7  -3 -11   43.80    2.93
   7   3 -11   45.70    2.20
   7  -3 -10    2.29    0.92
   7  -3 -10    1.82    1.06
   7   3 -10    1.35    1.15
   7  -3 -10    1.81    1.12
   7  -3  -9   29.96    2.20
   7   3  -9   32.32    2.51
   7  -3  -9   33.22    2.56
   7   3  -9   35.86    2.74
   7  -3  -9   29.31    2.47
   7  -3  -8    0.71    0.90
   7   3  -8    0.95    1.03
   7   3  -8    0.71    0.78
   7  -3  -8    1.73    1.10
   7   3  -8    0.97    1.08
   7  -3  -8    0.73    0.86
   7  -3  -7   52.78    2.97
   7   3  -7   49.04    2.98
   7  -3  -7   47.34    3.10
   7   3  -7   51.46    3.09
   7  -3  -7   48.26    2.39
   7  -3  -6    1.72    1.02
   7   3  -6    1.85    1.01
   7  -3  -6    2.11    0.77
   7   3  -6    6.29    1.14
   7   3  -6    2.81    1.09
   7  -3  -6    2.82    1.00
   7  -3  -6    1.08    0.85
  -7   3   6    2.08    1.38
   7  -3  -5  271.35    6.68
   7   3  -5  286.20    6.10
   7  -3  -5  280.52    6.47
   7  -3  -5  296.87    9.45
   7  -3  -5  256.41    5.93
   7  -3  -5  287.51    8.70
  -7   3   5  248.67   10.09
   7   3  -4  392.07    6.44
   7   3  -4  298.48    6.38
   7   3  -4  370.98    6.98
   7   3  -4  323.28    6.73
   7  -3  -4  365.50    7.23
  -7   3   4  412.58    9.99
  -7  -3   4  281.22    9.50
  -7  -3   4  256.87   10.46
   7  -3  -4  314.23    6.78
   7  -3  -4  339.52    9.52
   7   3  -3   38.84    2.21
   7   3  -3   30.63    2.06
   7   3  -3   36.04    2.34
   7   3  -3   30.72    2.19
   7  -3  -3   43.14    3.49
   7  -3  -3   36.03    2.37
  -7   3   3   44.59    3.36
  -7  -3   3   29.82    3.37
  -7  -3   3   25.38    3.53
   7   3  -2  711.26    9.35
   7   3  -2  610.62    8.72
   7   3  -2  688.18    9.69
   7   3  -2  648.55    9.13
   7  -3  -2  679.79   13.29
  -7   3   2  723.52   12.31
  -7  -3   2  582.70   13.98
   7  -3  -2  630.67   13.19
  -7  -3   2  491.58   15.00
   7  -3  -2  614.81    9.57
   7  -3  -1    0.33    0.65
   7   3  -1    0.69    0.67
   7   3  -1    0.60    0.91
   7  -3  -1    0.34    0.90
   7  -3  -1    0.47    0.81
  -7   3   1    0.80    1.11
  -7  -3   1    1.11    1.42
   7   3   0  126.63    4.23
   7   3   0  150.20    4.74
   7  -3   0  147.17    5.90
  -7   3   0  148.60    5.34
  -7  -3   0  108.06    6.16
  -7  -3   0  102.58    6.97
   7  -3   0  139.71    6.38
   7  -3   0  130.86    4.64
   7   3   1  183.63    5.24
   7   3   1  233.45    6.02
  -7   3  -1  211.55    6.29
   7  -3   1  225.62    7.04
  -7  -3  -1  166.67    7.66
  -7  -3  -1  150.42    8.33
   7  -3   1  211.77    5.94
   7  -3   1  220.32    8.29
   7   3   2    5.05    1.10
  -7  -3  -2    2.94    1.53
   7   3   2    3.31    1.16
   7  -3   2    5.28    1.46
  -7   3  -2    3.95    1.15
   7  -3   2    4.51    1.15
  -7  -3  -2    2.44    1.57
   7  -3   2    5.69    1.70
   7  -3   3  266.13    9.72
   7   3   3  192.68    5.70
   7   3   3  221.19    6.20
   7  -3   3  216.16    8.13
  -7   3  -3  220.71    6.47
  -7  -3  -3  204.46    8.17
  -7  -3  -3  169.61    8.56
   7  -3   3  225.45    6.46
   7   3   4   66.18    3.50
   7  -3   4   72.78    5.40
   7   3   4   75.25    3.89
  -7   3  -4   71.95    3.76
  -7  -3  -4   60.54    5.14
   7   3   5  428.22    8.81
   7   3   5  420.84    8.98
   7   3   5  476.46   10.29
  -7  -3  -5  433.43   12.05
  -7   3  -5  427.18    8.97
  -7  -3  -5  454.75   11.75
  -7  -3  -5  409.50   13.06
   7  -3   5  463.80    9.44
   7   3   6   51.99    3.24
   7   3   6   62.15    3.66
  -7   3  -6   57.58    3.27
   7   3   6   59.37    4.02
  -7  -3  -6   56.66    4.60
  -7   3  -6   52.96    3.22
  -7  -3  -6   62.25    4.45
   7  -3   6   58.12    3.48
   7   3   7  562.90   10.53
  -7  -3  -7  580.12   11.55
   7   3   7  608.35   10.98
  -7   3  -7  616.38   10.36
  -7   3  -7  587.84   10.35
   7  -3   7  602.96   11.06
   7   3   8  160.70    5.66
  -7  -3  -8  167.43    6.37
   7   3   8  174.96    6.03
  -7   3  -8  164.02    5.51
  -7   3  -8  180.46    5.68
  -7  -3  -8  180.34    6.97
   7  -3   8  189.30    6.13
   7   3   9   50.68    3.18
  -7  -3  -9   54.99    3.80
   7   3   9   60.14    3.59
  -7   3  -9   53.40    3.30
  -7  -3  -9   58.35    4.82
  -7   3  -9   55.35    2.99
  -7  -3  -9   57.64    3.91
  -7  -3 -10  572.25   11.56
   7   3  10  587.84   10.16
  -7   3 -10  547.41   10.04
  -7  -3 -10  614.44   14.39
  -7  -3 -10  624.20   11.39
  -7   3 -11   23.97    2.33
  -7  -3 -11   21.44    2.45
  -7  -3 -11   20.84    3.12
  -7  -3 -11   23.30    2.08
  -7  -3 -11   18.68    1.96
  -7   3 -12  129.21    4.75
  -7  -3 -12  116.49    5.04
  -7  -3 -12  113.93    5.89
  -7   3 -13  126.41    4.37
  -7  -3 -13  131.10    5.00
  -7   3 -13  117.09    4.34
  -7  -3 -13  127.50    3.95
  -7   3 -14   11.34    1.34
  -7  -3 -14   11.73    1.59
  -7   3 -14   10.96    1.51
  -7  -3 -14   10.31    1.05
  -7  -3 -15   15.63    1.42
  -7   3 -15   14.32    1.38
   7  -4 -15    0.90    0.41
   7  -4 -14   31.23    1.36
   7   4 -14   33.74    1.62
   7  -4 -14   35.82    1.90
   7  -4 -13   58.07    1.88
   7  -4 -13   53.64    2.14
   7   4 -13   59.96    2.49
   7  -4 -13   59.92    2.68
   7   4 -13   55.79    1.88
   7  -4 -12   51.12    2.12
   7  -4 -12   51.92    2.39
   7   4 -12   53.46    2.70
   7  -4 -12   53.62    2.75
   7  -4 -11   22.64    1.89
   7   4 -11   26.64    2.12
   7  -4 -11   23.66    2.05
   7   4 -11   21.79    1.60
   7  -4 -10    3.21    0.95
   7  -4 -10    2.72    1.10
   7   4 -10    2.37    1.21
   7   4 -10    6.31    1.03
   7  -4  -9   24.25    2.04
   7  -4  -9   21.62    2.13
   7   4  -9   23.87    2.30
   7   4  -9   24.40    1.87
   7  -4  -8  263.89    6.53
   7   4  -8  267.08    6.10
   7  -4  -8  292.25    7.25
   7   4  -8  286.52    7.39
   7  -4  -8  255.65    6.52
   7   4  -8  292.79    6.21
   7  -4  -7  469.82    8.87
   7   4  -7  453.68    8.16
   7  -4  -7  455.94    8.50
   7  -4  -6 1364.73   15.64
   7   4  -6 1425.89   14.69
   7   4  -6 1433.44   15.89
   7  -4  -6 1372.32   14.48
   7   4  -5  253.22    6.33
   7  -4  -5  250.92    6.12
   7   4  -4  243.28    5.41
   7   4  -4  197.69    5.69
   7  -4  -4  249.71    6.02
  -7   4   4  253.84    8.11
  -7  -4   4  181.48    8.02
   7  -4  -4  209.90    5.92
   7   4  -4  250.69    6.20
   7   4  -3   20.74    1.74
   7  -4  -3   17.72    2.56
   7   4  -3   19.99    1.93
   7   4  -3   15.98    1.73
  -7  -4   3   16.45    2.84
   7  -4  -3   17.18    1.84
  -7  -4   3   16.88    3.23
   7   4  -2   80.94    3.41
   7   4  -2   71.78    3.40
   7   4  -2   62.87    3.08
   7  -4  -2   72.71    4.80
   7  -4  -2   62.36    4.38
  -7   4   2   71.31    4.12
  -7  -4   2   63.37    5.09
   7  -4  -2   63.25    3.32
  -7  -4   2   57.77    5.86
   7   4  -1  129.89    4.49
   7   4  -1  144.74    4.91
   7   4  -1  128.31    4.29
   7  -4  -1  127.86    6.24
   7  -4  -1  115.63    5.92
  -7   4   1  125.02    5.25
  -7  -4   1  109.99    6.70
   7  -4  -1  111.59    4.53
  -7  -4   1   97.52    7.61
   7   4   0  238.41    6.28
   7   4   0  278.02    6.77
   7  -4   0  243.38    8.36
  -7   4   0  246.74    7.12
   7  -4   0  231.04    8.46
  -7  -4   0  190.72    8.88
   7  -4   0  227.38    6.49
   7   4   1   39.90    2.69
   7   4   1   49.03    3.03
   7  -4   1   42.89    3.45
  -7   4  -1   42.71    3.06
   7  -4   1   40.29    3.70
  -7  -4  -1   30.52    3.71
   7  -4   1   42.69    2.95
  -7  -4  -1   26.60    4.03
   7   4   2    8.64    1.46
  -7  -4  -2    5.99    2.20
   7  -4   2   10.39    1.93
  -7   4  -2   11.54    1.69
   7  -4   2    9.92    2.07
  -7  -4  -2    8.06    2.23
   7  -4   2    8.95    1.51
   7   4   3   27.11    2.52
   7   4   3   32.73    2.70
   7  -4   3   31.06    3.32
  -7   4  -3   31.41    2.57
  -7  -4  -3   28.22    3.66
   7  -4   3   33.46    2.75
   7   4   4  207.12    6.53
   7   4   4  216.03    6.43
  -7   4  -4  208.10    6.39
  -7  -4  -4  222.67    9.04
   7   4   5  309.37    8.06
   7   4   5  309.00    7.79
  -7   4  -5  345.40    7.32
  -7   4  -5  296.67    7.51
  -7  -4  -5  323.90   10.73
   7  -4   5  345.83    8.63
   7   4   6  944.55   13.98
   7   4   6  980.66   13.71
  -7   4  -6 1004.04   12.63
  -7   4  -6  901.65   12.83
  -7  -4  -6 1037.08   18.51
   7  -4   6 1043.51   14.99
   7   4   7  106.21    4.56
  -7   4  -7  108.58    4.47
  -7   4  -7  102.67    4.29
   7  -4   7  119.68    5.11
   7   4   8  191.27    6.09
   7   4   8  196.05    5.85
  -7   4  -8  193.62    5.78
  -7  -4  -8  209.49    7.89
   7   4   9   17.98    1.98
  -7  -4  -9   17.58    2.30
  -7   4  -9   16.49    1.99
  -7  -4  -9   17.09    2.38
  -7  -4 -10   82.61    4.30
  -7   4 -10   74.64    3.64
  -7  -4 -10   82.30    3.91
  -7  -4 -10   81.51    4.27
  -7   4 -11  125.46    4.48
  -7  -4 -11  131.18    5.08
  -7   4 -11  120.30    4.33
  -7  -4 -11  134.02    4.90
  -7  -4 -11  128.16    4.14
  -7   4 -12   15.95    1.64
  -7  -4 -12   16.56    1.90
  -7  -4 -12   17.47    1.71
  -7  -4 -13    0.76    0.83
  -7  -4 -13    0.15    0.79
  -7   4 -14    8.92    0.98
  -7  -4 -14    6.71    0.93
  -7   4 -14    8.06    1.12
  -7  -4 -14    9.00    0.99
  -7   4 -15    5.15    0.73
   7   5 -12    0.21    0.53
   7  -5 -12    0.47    0.46
   7  -5 -12    0.45    0.59
   7   5 -12    1.47    0.80
   7  -5 -11    5.98    0.90
   7   5 -11    6.47    1.25
   7  -5 -11    5.55    1.03
   7  -5 -11    5.37    1.03
   7   5 -11    4.72    0.90
   7  -5 -10   70.52    3.11
   7   5 -10   68.02    3.34
   7  -5 -10   63.84    2.92
   7   5 -10   67.09    2.74
   7  -5  -9   30.99    2.17
   7  -5  -9   28.42    2.29
   7   5  -9   32.21    2.52
   7  -5  -9   28.07    2.07
   7   5  -9   32.20    2.10
   7  -5  -8   12.84    1.65
   7   5  -8   13.12    1.83
   7  -5  -8   14.27    1.56
  -7   5   8   14.68    2.16
   7  -5  -8   13.53    1.30
   7   5  -8   12.13    1.49
   7  -5  -7   41.32    2.81
   7   5  -7   39.10    2.64
   7   5  -7   37.48    2.79
   7  -5  -7   44.66    2.59
  -7   5   7   44.28    3.68
   7  -5  -7   33.52    2.24
   7   5  -7   40.33    2.55
   7   5  -6   77.80    3.64
   7   5  -6   75.46    3.86
   7  -5  -6   79.31    3.39
   7  -5  -6   75.61    3.49
   7  -5  -5    0.61    0.80
   7  -5  -5    0.98    0.70
   7   5  -5    1.68    1.12
  -7   5   5    0.61    1.31
   7   5  -4    5.67    1.04
   7   5  -4    4.71    1.37
   7   5  -4    4.50    1.25
  -7  -5   4    3.66    2.00
   7   5  -3  273.45    5.93
   7   5  -3  272.68    7.04
   7   5  -3  234.34    6.23
  -7   5   3  271.37    8.24
  -7  -5   3  213.51    9.61
   7  -5  -3  228.94    6.60
   7   5  -2  409.22    7.61
   7   5  -2  405.82    8.43
   7   5  -2  372.26    7.66
  -7   5   2  400.07    9.66
  -7  -5   2  338.89   12.25
   7  -5  -2  349.25    8.23
   7   5  -1  186.91    5.47
   7   5  -1  197.25    5.98
   7   5  -1  185.86    5.45
  -7   5   1  180.13    6.40
   7  -5  -1  175.80    6.00
   7   5   0   12.29    1.70
   7   5   0   16.92    1.97
  -7   5   0   14.93    2.11
  -7  -5   0   11.86    2.86
   7  -5   0   12.35    1.86
   7   5   1   72.38    3.77
  -7   5  -1   75.81    4.03
   7  -5   1   76.75    4.19
   7   5   2  165.29    5.76
   7   5   2  182.38    5.86
  -7   5  -2  180.80    6.09
   7  -5   2  188.49    6.43
   7   5   3  162.66    6.02
  -7   5  -3  159.55    5.62
  -7  -5  -3  150.79    8.35
   7   5   3  156.09    5.50
   7   5   4   38.67    3.10
   7   5   4   30.84    2.59
  -7   5  -4   32.74    2.63
  -7  -5  -4   36.73    4.25
   7   5   5  149.73    5.74
   7   5   5  140.68    5.05
  -7   5  -5  147.28    5.26
  -7  -5  -5  154.64    8.22
   7   5   6  240.17    7.14
   7   5   6  220.38    6.05
  -7   5  -6  239.41    6.01
  -7   5  -6  220.54    6.29
  -7  -5  -6  247.36    9.75
   7   5   7    4.39    1.33
  -7   5  -7    4.98    1.28
  -7   5  -7    5.09    1.14
   7  -5   7    7.21    1.53
  -7  -5  -7    6.50    2.17
   7  -5   8    2.50    0.99
  -7   5  -8    1.89    1.09
  -7   5  -8    1.99    0.88
  -7   5  -9  171.82    4.97
  -7  -5  -9  190.61    6.29
  -7  -5  -9  183.45    6.87
  -7   5 -10  113.40    3.95
  -7  -5 -10  118.95    4.48
  -7  -5 -10  108.80    4.74
  -7   5 -11  120.46    3.81
  -7   5 -11  115.52    3.75
  -7  -5 -11  123.82    3.74
  -7   5 -12   23.95    1.60
  -7   5 -12   21.55    1.67
  -7  -5 -12   24.94    1.89
  -7   5 -13   36.62    1.53
  -7   5 -13   39.38    1.90
   7   6 -12   78.16    2.05
   7   6 -11    1.54    0.67
   7  -6 -11    0.74    0.46
   7  -6 -11    0.97    0.67
   7  -6 -11    0.71    0.45
   7  -6 -10  323.31    5.68
   7   6 -10  309.86    5.31
   7  -6  -9   42.69    2.43
   7  -6  -9   37.87    1.97
   7   6  -9   39.88    2.19
   7  -6  -8  152.42    4.46
   7   6  -8  155.51    4.91
   7  -6  -8  137.43    3.77
  -7   6   8  180.08    5.83
   7  -6  -8  113.20    3.19
   7   6  -8  157.11    4.35
   7  -6  -7    1.08    0.98
   7  -6  -7    0.93    0.69
   7   6  -7    1.73    1.07
  -7   6   7    0.50    1.11
   7   6  -7    3.96    1.10
   7   6  -6   27.48    2.32
  -7   6   6   31.10    2.86
   7  -6  -6   24.07    1.96
   7   6  -6   26.54    2.04
   7   6  -5    6.11    1.36
  -7   6   5    7.25    1.67
   7  -6  -5    5.15    1.15
   7   6  -5    7.58    1.34
  -7  -6   4  110.60    6.19
   7  -6  -4  125.98    4.75
  -7  -6   4  103.82    6.62
   7   6  -3    2.59    1.03
  -7  -6   3    2.47    1.70
   7  -6  -3    3.33    1.19
   7   6  -3    5.56    1.43
  -7   6   3    3.12    1.46
  -7  -6   3    2.46    1.96
   7   6  -2  355.45    8.16
  -7  -6   2  308.70   11.23
  -7   6   2  362.69    9.10
   7  -6  -2  330.81    8.23
  -7  -6   2  311.70   12.45
  -7  -6   1    4.47    2.18
  -7   6   1    5.91    1.61
   7  -6  -1    6.01    1.57
  -7  -6   1    6.45    2.88
   7   6   0  312.29    7.73
  -7   6   0  294.09    8.19
   7  -6   0  307.61    8.29
   7   6   1   16.80    2.09
   7   6   1   15.76    2.05
  -7   6  -1   17.72    2.14
  -7  -6  -1   13.90    3.43
   7  -6   1   18.87    2.34
   7   6   2  779.47   12.77
   7   6   2  812.59   11.89
  -7   6  -2  879.71   13.17
  -7  -6  -2  664.88   18.93
   7  -6   2  970.42   14.54
   7   6   3   41.67    3.10
   7   6   3   33.41    2.62
  -7   6  -3   36.95    2.80
  -7  -6  -3   38.47    4.84
   7  -6   3   45.24    3.36
   7   6   4  134.99    4.74
  -7  -6  -4  138.03    8.35
  -7  -6  -5    0.80    1.63
   7  -6   5    3.88    1.23
  -7   6  -5    4.83    1.18
  -7  -6  -5    0.91    1.83
  -7  -6  -6    1.99    1.56
   7  -6   6    2.01    1.03
  -7   6  -6    2.01    0.88
  -7   6  -6    3.88    1.01
  -7  -6  -6    1.90    1.87
  -7   6  -7   39.02    2.28
  -7  -6  -7   47.19    3.80
  -7   6  -7   37.84    2.24
  -7  -6  -7   51.02    4.38
   7  -6   7   50.99    2.98
  -7   6  -8  114.02    3.68
  -7   6  -8  101.01    3.14
  -7   6  -9    6.98    1.14
  -7  -6  -9    9.83    1.64
  -7  -6  -9    8.98    1.82
  -7   6 -10   52.32    2.27
  -7   6 -10   52.74    2.27
  -7  -6 -10   52.34    3.01
  -7   6 -11   18.29    1.18
  -7   6 -11   19.23    1.32
  -7   6 -12   48.09    1.65
  -7  -6 -12   82.26    3.07
   7   7 -11    1.67    0.39
   7  -7 -10   30.68    1.45
   7   7 -10   29.41    1.38
   7   7  -9    0.62    0.61
   7  -7  -9    0.67    0.53
   7  -7  -9    0.42    0.64
   7   7  -8    1.61    0.73
   7  -7  -8    1.11    0.83
   7   7  -7    0.62    0.71
   7  -7  -7    0.85    0.80
   7  -7  -7    0.73    0.57
  -7   7   7    1.62    0.96
   7  -7  -6   12.68    1.55
  -7   7   6   13.01    1.73
   7  -7  -6   10.63    1.27
   7   7  -6   11.28    1.32
  -7   7   5   61.07    3.47
   7   7  -4    1.30    0.90
  -7  -7   4    5.65    1.66
   7  -7  -4    3.02    1.03
  -7   7   4    1.37    1.20
  -7  -7   4    3.63    1.70
  -7  -7   3   40.03    3.92
  -7   7   3   46.64    3.15
   7  -7  -3   38.99    2.66
  -7  -7   3   38.67    4.28
   7   7  -3   39.51    2.31
  -7  -7   2  175.58    8.22
  -7   7   2  177.56    5.91
   7  -7  -2  176.79    5.61
  -7  -7   2  159.13    8.70
   7   7  -2  154.69    4.39
   7   7  -1   87.31    3.77
  -7  -7   1   94.35    6.43
  -7   7   1   93.49    4.35
   7  -7  -1   96.51    4.41
  -7  -7   1   90.18    6.84
   7   7  -1   84.68    3.17
   7   7   0    1.93    0.75
   7  -7   0    2.64    1.18
   7   7   0    1.64    1.01
  -7   7   0    1.56    1.13
   7   7   1   51.46    2.82
  -7  -7  -1   59.47    5.29
  -7   7  -1   59.49    3.35
   7  -7   1   66.20    3.72
  -7  -7  -1   45.49    5.20
   7   7   2   35.03    2.26
  -7  -7  -2   27.53    3.78
  -7   7  -2   32.87    2.45
  -7  -7  -2   29.79    4.48
   7  -7   2   36.39    2.83
  -7  -7  -3   12.62    2.73
  -7   7  -3   12.39    1.62
  -7  -7  -3   12.26    3.20
   7  -7   3   17.82    2.03
  -7  -7  -4   10.87    2.58
  -7  -7  -4   10.60    2.92
   7  -7   4   11.60    1.65
  -7  -7  -5   60.32    4.54
  -7  -7  -5   61.64    5.02
   7  -7   5   67.74    3.37
  -7  -7  -6  108.49    5.52
  -7  -7  -6  105.83    6.07
   7  -7   6  115.00    4.01
  -7  -7  -7  237.93    7.32
  -7  -7  -7  229.84    7.99
   7  -7   7  237.39    4.76
  -7  -7  -8    0.73    1.50
  -7   7  -9   62.49    1.84
  -7  -7  -9  115.28    4.67
  -7  -7  -9  107.88    3.74
  -7  -7  -9   75.47    3.47
  -7  -7 -10   44.56    2.53
  -7  -7 -10   51.28    2.72
  -7  -7 -11   85.07    2.71
   7  -8  -8   55.04    1.81
   7   8  -8   48.05    1.45
   7  -8  -7   19.12    1.35
   7   8  -7   17.78    1.06
   7  -8  -6  236.77    4.39
  -7   8   6  231.90    4.86
   7  -8  -6  207.29    3.78
   7   8  -6  201.88    3.57
   7  -8  -5   73.04    2.80
  -7   8   5   68.14    3.02
  -7   8   4  123.85    4.11
   7   8  -4   97.63    2.63
  -7  -8   3   54.34    3.58
  -7   8   3   58.35    2.97
   7  -8  -3   57.52    2.78
  -7  -8   3   49.85    3.76
   7   8  -3   47.34    1.80
  -7  -8   2   93.37    5.21
  -7   8   2   85.64    3.54
   7  -8  -2   83.93    3.48
  -7  -8   2   94.38    5.79
  -7  -8   1   -0.05    1.46
   7  -8  -1    1.52    0.97
  -7   8   1    0.76    0.88
  -7  -8   1    0.34    1.76
  -7   8   0   48.31    2.65
   7  -8   0   55.44    2.94
  -7  -8  -1    1.50    1.72
   7  -8   1    1.14    0.85
  -7   8  -1    0.84    0.80
  -7  -8  -1    0.55    1.95
  -7  -8  -2    2.50    1.81
   7  -8   2    1.98    0.93
  -7   8  -2    0.95    0.79
  -7  -8  -2    2.19    2.10
  -7  -8  -3   41.63    3.92
  -7   8  -3   35.31    2.08
  -7  -8  -3   39.01    4.12
  -7  -8  -4   88.32    5.06
  -7  -8  -4   85.78    5.50
   7  -8   4   91.90    3.34
  -7  -8  -5   52.60    3.72
  -7  -8  -5   52.39    4.09
   7  -8   5   48.56    2.19
  -7  -8  -6  263.47    7.46
  -7  -8  -6  250.59    6.96
  -7  -8  -6  258.60    7.62
  -7  -8  -7   86.90    4.03
  -7  -8  -7   85.77    3.60
  -7  -8  -7   80.19    3.87
  -7  -8  -8   54.51    2.83
   7  -9  -4    5.87    0.70
   7  -9  -4    3.36    0.57
   7  -9  -3    1.82    0.61
   7  -9  -3    1.96    0.52
  -7   9   3    1.43    0.59
  -7   9   2   68.52    2.43
   7  -9  -2   72.36    2.40
  -7   9   1    9.34    1.07
   7  -9  -1   13.78    1.17
   7   9   0    5.20    0.57
  -7   9   0    7.07    0.92
   7  -9   0    7.24    0.91
  -7  -9  -1   33.33    2.58
   7  -9   1   30.75    1.63
  -7  -9  -2    1.91    1.07
  -7   9  -2    1.94    0.57
  -7  -9  -3  150.94    4.96
   7   9   4   14.12    0.95
  -7  -9  -4   18.57    1.75
   8   0 -14   59.57    2.27
   8   0 -13   -0.04    0.62
   8   0 -13    0.54    0.76
   8   0 -12  571.74    7.99
   8   0 -12  562.69    8.26
   8   0 -11    1.12    0.91
   8   0 -11    0.40    1.13
   8   0 -11    0.48    1.08
   8   0 -10  192.06    5.19
   8   0 -10  178.60    5.21
   8   0 -10  194.71    6.19
   8   0  -9    0.20    0.81
   8   0  -9   -0.09    1.00
   8   0  -9    0.54    1.00
   8   0  -8  195.87    5.54
   8   0  -8  196.23    5.43
   8   0  -8  209.32    6.50
   8   0  -7    1.14    0.87
   8   0  -7    0.44    0.90
   8   0  -7    0.26    0.89
   8   0  -6  137.26    4.42
   8   0  -6  141.31    3.76
   8   0  -6  141.63    4.47
   8   0  -6  131.13    4.99
  -8   0   5   -0.25    0.91
   8   0  -5   -0.02    0.76
   8   0  -5    0.11    0.49
   8   0  -5    0.16    0.57
   8   0  -5   -0.02    0.72
   8   0  -5    0.03    0.84
   8   0  -5    0.03    0.52
  -8   0   5    0.14    1.14
  -8   0   4    3.79    1.63
   8   0  -4    4.49    1.16
   8   0  -4    4.26    0.95
  -8   0   4    5.84    1.75
   8   0  -4    3.69    0.91
   8   0  -4    4.36    0.87
  -8   0   3    0.07    1.22
   8   0  -3    0.38    0.71
   8   0  -3    0.17    0.57
   8   0  -3    0.92    0.75
   8   0  -3    0.26    0.64
   8   0  -3    0.42    0.81
  -8   0   3   -0.22    1.19
   8   0  -2  407.60    6.94
   8   0  -2  425.33    7.21
   8   0  -2  448.70    6.95
  -8   0   2  444.25   13.59
  -8   0   2  471.26   11.37
   8   0  -2  418.66    7.26
   8   0  -2  478.53   10.73
  -8   0   1    0.06    1.25
   8   0  -1    0.37    0.69
   8   0  -1    0.75    0.92
   8   0  -1    1.47    1.00
  -8   0   1    0.74    1.33
  -8   0   0 1082.59   20.61
  -8   0   0 1187.47   17.44
   8   0   0 1214.14   17.78
   8   0   0 1086.25   12.23
  -8   0  -1    1.94    1.61
   8   0   1    3.07    1.05
   8   0   1    1.32    1.16
  -8   0  -1    4.49    1.70
  -8   0  -2  947.95   15.09
   8   0   2  931.79   11.92
  -8   0  -3    0.40    1.18
   8   0   3    0.68    0.95
   8   0   3    0.34    0.80
   8   0   4  643.08   14.05
  -8   0  -4  593.07   14.56
  -8   0  -4  665.01   12.68
   8   0   4  619.27   10.07
   8   0   5    1.42    0.97
  -8   0  -5    0.60    1.11
  -8   0  -6  190.89    6.56
   8   0   7    3.67    1.15
  -8   0  -7    1.68    1.28
  -8   0  -7    4.59    1.41
  -8   0  -8   83.11    4.52
  -8   0  -8   71.44    4.17
   8   0   9    0.37    0.79
  -8   0  -9    0.31    1.19
  -8   0  -9    0.07    1.29
  -8   0  -9    0.07    0.96
   8   0  10  103.88    4.06
  -8   0 -10  113.02    5.26
  -8   0 -10  111.11    5.20
  -8   0 -10  102.56    4.44
  -8   0 -11    1.19    1.34
  -8   0 -11    1.70    1.31
  -8   0 -12  208.99    6.60
  -8   0 -13    2.19    1.45
  -8   0 -13    2.18    1.32
  -8   0 -14   29.05    2.21
  -8   0 -14   28.30    2.24
  -8   0 -15    1.25    0.77
  -8   0 -15    0.20    0.75
   8  -1 -14    1.46    0.53
   8   1 -14    1.32    0.69
   8  -1 -14    1.14    0.67
   8  -1 -13   12.90    1.19
   8   1 -13   13.82    1.30
   8  -1 -13   12.72    1.30
   8   1 -13   12.81    1.35
   8  -1 -13   15.17    1.66
   8  -1 -12    0.30    0.68
   8   1 -12    0.77    0.75
   8  -1 -12   -0.04    0.82
   8   1 -12    0.24    0.87
   8  -1 -12    0.49    0.96
   8  -1 -11   27.88    1.97
   8   1 -11   29.49    2.10
   8  -1 -11   31.22    2.26
   8   1 -11   30.51    2.25
   8  -1 -11   31.54    2.56
   8   1 -11   28.05    1.53
   8  -1 -10   71.09    3.25
   8   1 -10   77.00    3.42
   8  -1 -10   75.75    3.45
   8   1 -10   75.48    3.48
   8  -1 -10   74.00    3.94
   8   1 -10   66.22    2.51
   8  -1  -9    1.41    1.01
   8   1  -9    1.71    1.07
   8  -1  -9    1.30    1.06
   8   1  -9    1.52    1.14
   8  -1  -9    1.01    1.13
   8   1  -9    1.04    1.08
   8  -1  -8  726.80   10.37
   8   1  -8  691.80   10.23
   8   1  -8  668.65    8.21
   8  -1  -8  707.43   10.38
   8   1  -8  705.44   10.22
   8  -1  -8  687.60   11.55
   8   1  -8  656.40   11.45
   8  -1  -7   37.78    2.56
   8   1  -7   36.29    2.43
   8   1  -7   33.78    2.02
   8  -1  -7   38.10    2.53
   8   1  -7   35.74    2.42
   8  -1  -7   40.10    2.89
   8  -1  -6   61.91    3.11
   8   1  -6   62.20    3.05
   8   1  -6   58.74    2.66
   8  -1  -6   62.61    3.08
   8  -1  -6   60.16    3.40
   8  -1  -6   62.92    2.56
   8  -1  -5  286.75    6.44
   8   1  -5  290.06    5.80
   8   1  -5  279.87    6.01
   8  -1  -5  288.46    7.14
   8  -1  -5  288.39    8.16
  -8   1   5  291.14   11.27
  -8   1   5  309.71    9.50
   8  -1  -5  298.37    7.98
   8  -1  -5  288.43    5.63
   8   1  -5  317.46    5.68
   8  -1  -4   37.70    2.38
   8   1  -4   41.18    2.40
   8   1  -4   43.79    2.37
   8  -1  -4   46.75    2.23
   8  -1  -4   44.06    2.46
   8   1  -4   44.58    2.39
   8  -1  -4   36.86    2.93
   8  -1  -4   43.44    3.29
  -8   1   4   42.39    4.32
  -8   1   4   52.37    4.06
  -8  -1   4   30.81    3.76
  -8  -1   4   37.57    3.55
   8  -1  -4   39.48    2.23
   8   1  -4   41.44    2.25
   8  -1  -3   54.81    2.75
   8   1  -3   50.93    2.56
   8   1  -3   56.81    2.72
   8   1  -3   52.03    2.50
   8  -1  -3   53.34    3.12
   8  -1  -3   53.98    3.67
   8  -1  -3   52.42    3.35
  -8   1   3   49.42    4.54
  -8   1   3   65.03    4.38
  -8  -1   3   43.59    4.35
  -8  -1   3   51.79    4.08
   8  -1  -3   53.86    2.61
   8  -1  -3   51.19    2.57
   8  -1  -3   57.47    2.55
   8   1  -3   57.63    2.67
   8  -1  -2   11.79    1.41
   8   1  -2   10.90    1.25
   8  -1  -2   12.74    1.40
   8  -1  -2   12.47    1.32
   8   1  -2   12.55    1.29
   8  -1  -2   15.53    1.79
  -8  -1   2    8.98    2.18
  -8  -1   2   12.22    2.29
   8   1  -2   11.19    1.34
   8  -1  -1  146.54    4.25
   8   1  -1  155.60    4.13
   8   1  -1  147.49    4.54
   8  -1  -1  161.15    4.18
   8  -1  -1  154.39    6.33
   8  -1  -1  152.34    5.20
  -8   1   1  142.91    7.30
  -8   1   1  153.51    6.18
   8  -1  -1  142.07    4.37
   8  -1   0   18.23    1.62
   8   1   0   17.44    1.81
   8  -1   0   16.47    2.21
   8  -1   0   16.42    1.67
  -8   1   0   16.69    2.63
  -8   1   0   18.56    2.35
  -8  -1   0   14.58    2.61
  -8  -1   0   16.29    2.45
   8  -1   0   16.44    1.67
   8   1   0   17.34    1.69
   8  -1   1  567.40   12.80
  -8   1  -1  496.78   13.06
  -8   1  -1  574.72   11.46
  -8  -1  -1  461.76   13.13
  -8  -1  -1  514.16   12.11
   8  -1   1  544.01    8.84
   8   1   1  538.40    8.98
  -8   1  -2    5.46    1.63
  -8  -1  -2    3.28    1.48
   8  -1   2    6.28    1.62
  -8   1  -2    4.16    1.37
  -8  -1  -2    4.93    1.69
   8  -1   2    5.28    1.10
   8   1   2    3.99    1.05
  -8   1  -3   53.81    4.36
   8  -1   3   59.68    4.44
  -8   1  -3   53.54    3.61
  -8  -1  -3   45.72    4.22
  -8  -1  -3   53.37    3.97
   8  -1   3   54.93    3.03
   8   1   3   55.85    3.07
  -8   1  -4  701.07   15.31
  -8   1  -4  808.95   13.43
  -8  -1  -4  646.19   15.38
  -8  -1  -4  774.83   14.45
   8  -1   4  812.02   16.23
   8  -1   4  775.27   11.45
   8   1   4  752.20   11.32
  -8  -1  -5   58.75    4.08
  -8   1  -5   53.47    3.68
  -8  -1  -5   64.10    4.29
   8  -1   5   53.94    3.18
   8   1   5   54.80    3.21
   8  -1   6    2.91    1.06
  -8  -1  -6    4.12    1.40
  -8   1  -6    4.32    1.47
  -8  -1  -6    5.55    1.66
  -8   1  -6    3.37    1.33
  -8  -1  -6    3.78    1.55
   8   1   7  205.79    6.12
  -8  -1  -7  209.34    6.64
  -8   1  -7  231.80    6.89
  -8  -1  -7  238.08    7.78
  -8   1  -7  210.29    6.81
  -8  -1  -7  218.80    7.58
   8  -1   7  200.37    6.09
   8   1   8   24.01    2.28
  -8  -1  -8   26.10    2.74
  -8   1  -8   23.39    2.57
  -8  -1  -8   24.35    2.85
  -8   1  -8   20.88    2.29
  -8  -1  -8   23.09    2.69
   8  -1   8   27.10    2.42
   8   1   9  175.85    5.64
  -8  -1  -9  187.71    6.53
  -8   1  -9  185.16    6.33
  -8  -1  -9  199.78    7.14
  -8   1  -9  192.88    6.16
  -8  -1  -9  206.34    6.91
   8  -1   9  195.36    5.91
   8   1  10   50.21    2.97
  -8   1 -10   54.26    3.73
  -8   1 -10   50.81    3.50
  -8  -1 -10   53.04    3.83
  -8   1 -10   51.04    3.00
  -8  -1 -10   53.96    3.34
  -8   1 -11  176.02    6.20
  -8   1 -11  160.55    5.83
  -8   1 -12   42.14    3.03
  -8  -1 -12   41.59    3.10
  -8  -1 -12   41.69    3.32
  -8   1 -13  159.82    5.25
  -8  -1 -13  166.59    5.38
  -8  -1 -13  148.81    5.34
  -8   1 -14    0.99    0.95
  -8  -1 -14    0.77    0.91
  -8   1 -14    0.79    0.98
  -8  -1 -14    1.39    1.14
  -8   1 -15   82.68    2.89
  -8  -1 -15   82.45    2.93
   8  -2 -15   14.26    0.84
   8  -2 -14   42.88    1.55
   8  -2 -14   44.61    1.77
   8   2 -14   45.47    1.93
   8  -2 -14   47.95    2.31
   8  -2 -13    1.41    0.71
   8   2 -13    1.37    0.82
   8  -2 -13    1.41    0.87
   8  -2 -12    2.86    0.80
   8  -2 -12    2.98    0.91
   8   2 -12    3.12    1.05
   8  -2 -12    2.49    1.03
   8   2 -12    2.37    0.56
   8  -2 -11    9.49    1.26
   8   2 -11   11.84    1.46
   8  -2 -11   10.07    1.40
   8   2 -11    8.16    1.44
   8  -2 -11   13.23    1.73
   8   2 -11    9.41    1.03
   8  -2 -10  118.41    4.10
   8   2 -10  128.00    4.41
   8  -2 -10  125.37    4.37
   8   2 -10  133.64    4.60
   8  -2 -10  119.98    4.76
   8   2 -10  114.93    3.38
   8  -2  -9   48.63    2.85
   8   2  -9   48.03    2.84
   8   2  -9   43.93    2.23
   8  -2  -9   48.60    2.96
   8   2  -9   51.04    3.02
   8  -2  -9   47.46    3.11
   8  -2  -8  275.07    6.70
   8   2  -8  270.43    6.61
   8   2  -8  260.40    5.50
   8  -2  -8  263.44    7.04
   8   2  -7    5.62    1.31
   8  -2  -7    2.06    1.12
   8   2  -7    3.29    0.98
   8  -2  -7    2.62    1.19
   8   2  -7    3.23    1.20
   8  -2  -7    3.09    1.24
   8  -2  -6  395.40    7.90
   8   2  -6  403.59    7.68
   8   2  -6  358.68    6.69
   8  -2  -6  381.67    7.63
  -8   2   6  427.55   11.18
   8  -2  -6  374.07    6.46
   8   2  -5  159.74    4.00
   8  -2  -5  142.42    4.81
   8   2  -5  133.74    4.39
   8  -2  -5  143.79    5.02
  -8   2   5  163.93    7.07
   8  -2  -5  131.13    4.10
   8   2  -4 1178.50   11.30
   8  -2  -4 1098.07   12.80
   8   2  -4 1057.26   11.68
   8   2  -4 1046.21   11.77
   8  -2  -4 1166.36   17.18
   8  -2  -4 1090.97   12.21
   8   2  -4 1104.79   11.91
   8  -2  -4 1095.20   13.49
   8  -2  -4 1109.53   16.52
  -8   2   4 1199.25   22.83
  -8   2   4 1360.34   19.34
  -8  -2   4  884.27   17.25
  -8  -2   4  787.86   19.06
   8  -2  -4 1042.44   11.62
   8   2  -3  492.54    7.71
   8   2  -3  471.08    7.55
   8  -2  -3  486.94   11.41
   8   2  -3  487.02    8.04
   8  -2  -3  481.18    7.82
   8   2  -3  483.72    7.70
   8  -2  -3  487.50    8.86
   8  -2  -3  471.76   10.49
  -8   2   3  502.98   14.55
  -8   2   3  563.22   12.28
  -8  -2   3  407.51   11.70
  -8  -2   3  352.83   13.09
   8  -2  -3  437.03    7.69
   8   2  -2  326.90    6.52
   8  -2  -2  301.61    6.51
   8   2  -2  311.58    5.99
   8  -2  -2  320.82    6.03
   8   2  -2  331.30    6.85
   8  -2  -2  311.72    6.26
   8   2  -2  325.50    6.23
   8  -2  -2  296.17    8.18
  -8  -2   2  283.22    9.77
  -8  -2   2  260.72   11.29
   8  -2  -2  288.01    6.37
   8  -2  -1    6.93    1.22
  -8  -2   1    6.11    2.02
   8   2  -1    7.94    1.08
   8  -2  -1    7.30    1.63
   8   2  -1    8.58    1.40
   8  -2  -1    8.21    1.16
   8  -2  -1    8.01    1.41
  -8   2   1    7.58    1.69
   8  -2  -1    7.06    1.19
   8  -2   0   26.21    2.02
   8  -2   0   32.05    3.17
  -8   2   0   28.03    3.32
  -8   2   0   34.57    3.00
   8   2   0   27.91    2.28
  -8  -2   0   24.09    3.18
  -8  -2   0   25.06    3.74
   8  -2   0   25.73    2.08
   8   2   0   32.70    2.30
   8  -2   1    9.99    1.29
  -8  -2  -1    4.99    1.96
   8   2   1    7.85    1.53
   8  -2   1    6.89    1.66
  -8   2  -1    6.30    1.70
  -8  -2  -1   10.37    2.27
   8  -2   1    6.86    1.26
   8   2   1    6.70    1.21
   8   2   2  336.40    7.73
   8  -2   2  369.18   10.79
  -8   2  -2  317.73   10.35
  -8   2  -2  343.46    8.75
  -8  -2  -2  308.74   10.06
  -8  -2  -2  287.89   11.60
   8  -2   2  372.64    7.81
   8   2   2  331.96    7.37
   8   2   3   21.48    2.11
   8  -2   3   22.37    2.81
  -8   2  -3   20.59    2.70
  -8   2  -3   26.90    2.65
  -8  -2  -3   24.41    3.05
  -8  -2  -3   21.08    3.21
   8   2   3   25.78    2.46
   8  -2   3   23.46    2.18
   8   2   4   77.93    3.82
  -8   2  -4   78.20    4.18
  -8  -2  -4   72.72    4.90
   8  -2   4   72.37    3.68
  -8  -2  -5   24.96    3.16
  -8   2  -5   32.52    2.86
  -8  -2  -5   26.92    3.07
   8   2   6   57.46    3.39
  -8  -2  -6   56.92    3.57
  -8   2  -6   70.49    3.76
  -8  -2  -6   66.38    4.68
  -8   2  -6   78.13    4.24
  -8  -2  -6   64.66    4.55
   8  -2   6   64.29    3.57
   8   2   7  175.76    5.86
  -8  -2  -7  199.94    6.64
  -8   2  -7  230.76    6.61
  -8  -2  -7  234.16    8.29
  -8   2  -7  209.12    6.63
   8  -2   7  208.34    6.35
   8   2   8  906.73   13.22
  -8  -2  -8  950.84   14.42
  -8   2  -8 1034.81   14.09
  -8  -2  -8 1080.96   17.40
  -8   2  -8 1010.39   14.04
  -8  -2  -8 1048.75   16.59
   8  -2   8  966.37   13.37
   8   2   9   88.18    4.11
  -8  -2  -9   93.63    4.67
  -8   2  -9   94.96    4.36
  -8  -2  -9  101.62    5.46
  -8   2  -9   97.11    4.16
  -8  -2  -9  100.14    4.94
   8  -2   9   92.31    4.05
   8   2  10   56.19    3.12
  -8   2 -10   64.82    3.96
  -8  -2 -10   71.13    4.07
   8   2  10   64.57    3.68
  -8   2 -10   62.86    3.57
  -8  -2 -10   63.28    3.70
  -8   2 -11   20.00    2.35
  -8  -2 -11   19.60    2.25
   8   2  11   20.50    2.11
  -8   2 -11   18.11    2.08
  -8   2 -12    9.03    1.61
  -8  -2 -12    8.55    1.58
  -8   2 -12    8.72    1.57
  -8  -2 -12    9.45    1.92
   8   2  12    7.63    1.27
  -8   2 -13    1.10    1.01
  -8  -2 -13    2.22    1.09
  -8  -2 -13    1.23    1.22
  -8   2 -14   29.25    1.99
  -8  -2 -14   28.48    1.98
  -8   2 -15    0.19    0.52
  -8  -2 -15    0.10    0.48
   8  -3 -14    0.93    0.32
   8  -3 -14    1.29    0.46
   8   3 -14    0.79    0.52
   8  -3 -14    0.97    0.59
   8   3 -13    0.38    0.32
   8  -3 -13    0.95    0.49
   8  -3 -13    0.98    0.58
   8   3 -13    1.65    0.74
   8  -3 -13    1.78    0.78
   8   3 -12    1.55    0.51
   8  -3 -12    1.70    0.80
   8   3 -12    0.70    0.82
   8  -3 -12    1.43    0.87
   8   3 -11    0.05    0.57
   8  -3 -11   -0.05    0.69
   8  -3 -11    0.77    0.82
   8   3 -11    0.36    1.02
   8  -3 -11    0.30    0.78
   8  -3 -10    2.18    0.91
   8   3 -10    5.43    1.31
   8  -3 -10    2.42    1.15
   8  -3 -10    2.03    1.02
   8  -3  -9  128.05    4.42
   8  -3  -9  136.29    4.68
   8   3  -9  143.53    4.94
   8  -3  -9  129.38    4.75
   8   3  -9  125.63    3.84
   8  -3  -8  157.33    5.06
   8   3  -8  155.74    5.09
   8   3  -8  140.70    4.24
   8  -3  -8  161.79    5.20
   8   3  -8  161.39    5.29
   8  -3  -7  221.34    6.57
   8   3  -7  255.39    6.46
   8  -3  -7  257.54    6.51
   8   3  -7  263.85    6.58
   8  -3  -7  238.36    6.38
  -8   3   7  267.48    8.69
   8  -3  -7  233.51    4.99
   8  -3  -6   48.55    3.09
   8   3  -6   50.09    2.85
   8  -3  -6   49.61    2.97
   8  -3  -6   47.05    2.93
   8  -3  -6   43.69    2.47
   8  -3  -5    4.91    1.32
   8   3  -5    4.13    1.11
   8   3  -5    4.24    1.21
   8  -3  -5    3.01    0.89
   8   3  -5    4.20    1.14
   8  -3  -5    2.64    1.13
   8  -3  -5    4.76    1.14
  -8   3   5    3.59    1.72
   8  -3  -4  277.00    6.87
   8   3  -4  293.33    6.02
   8   3  -4  283.79    6.29
   8   3  -4  302.30    6.72
   8  -3  -4  291.80    6.74
   8   3  -4  280.49    6.34
   8  -3  -4  285.71    6.85
   8  -3  -4  270.42    6.25
   8  -3  -3   57.65    3.22
   8   3  -3   65.37    2.96
   8   3  -3   58.83    2.89
   8   3  -3   56.18    3.11
   8   3  -3   55.02    2.87
   8  -3  -3   58.66    3.13
  -8   3   3   61.22    4.27
   8   3  -2   72.80    3.22
   8   3  -2   69.63    3.00
   8   3  -2   72.30    3.50
   8   3  -2   72.88    3.20
   8  -3  -2   70.48    4.13
  -8   3   2   80.89    4.73
  -8  -3   2   60.25    5.01
   8  -3  -2   65.52    3.36
   8   3  -1   62.35    3.29
   8  -3  -1   51.50    3.44
  -8   3   1   61.88    4.03
   8  -3  -1   56.03    3.14
   8   3   0  223.47    5.99
   8   3   0  221.96    6.33
  -8   3   0  226.05    7.33
   8  -3   0  219.22    6.16
   8   3   1   12.63    1.82
  -8   3  -1   13.23    2.06
  -8  -3  -1   12.64    2.65
   8  -3   1   11.85    1.61
   8   3   2  134.09    4.96
   8   3   2  141.56    5.23
  -8   3  -2  134.01    5.61
   8   3   3  605.91   10.65
   8   3   3  640.47   11.07
  -8   3  -3  617.03   11.80
   8  -3   3  637.54   10.93
   8   3   4   63.59    3.67
   8   3   4   79.05    4.13
  -8   3  -4   75.59    4.18
  -8  -3  -4   73.57    5.40
   8  -3   4   72.92    3.81
   8   3   5  412.07    9.17
  -8  -3  -5  434.56   12.41
   8   3   6  426.62    9.31
   8   3   6  420.00    9.19
  -8   3  -6  412.38    9.20
  -8  -3  -6  443.47   12.12
   8   3   7  150.61    5.54
  -8   3  -7  147.61    5.02
  -8   3  -7  137.52    5.34
   8  -3   7  158.60    5.58
   8   3   8  129.03    5.04
  -8  -3  -8  127.59    5.24
   8   3   8  140.05    5.21
  -8   3  -8  130.68    4.80
  -8   3  -8  127.30    4.87
  -8  -3  -8  146.72    6.42
   8  -3   8  135.73    5.05
   8   3   9  183.32    5.78
  -8  -3  -9  188.71    6.24
   8   3   9  194.71    5.89
  -8   3  -9  182.85    5.63
  -8   3  -9  173.50    5.17
  -8  -3  -9  191.82    6.85
   8  -3   9  207.64    5.68
   8   3  10   17.73    1.81
  -8  -3 -10   19.84    2.21
  -8   3 -10   18.17    2.06
   8   3  10   21.60    2.02
  -8  -3 -10   18.00    2.15
  -8   3 -11   49.22    3.03
  -8  -3 -11   46.37    2.99
  -8   3 -11   38.34    2.58
  -8  -3 -11   36.64    2.15
  -8  -3 -11   36.08    2.40
  -8   3 -12  216.98    5.64
  -8  -3 -12  226.70    5.84
  -8   3 -12  209.42    5.38
  -8   3 -13   17.56    1.63
  -8  -3 -13   16.88    1.57
  -8   3 -13   15.06    1.52
  -8  -3 -13   12.28    1.07
  -8   3 -14   77.86    2.62
  -8   3 -14   60.60    2.27
   8  -4 -13   90.76    1.98
   8  -4 -13  112.66    2.61
   8   4 -13  115.62    2.91
   8  -4 -13  117.58    3.15
   8   4 -13   85.32    1.85
   8  -4 -12   87.23    2.44
   8  -4 -12   82.53    2.69
   8   4 -12   90.96    3.05
   8  -4 -12   88.61    3.11
   8   4 -12   79.93    2.26
   8  -4 -11  196.71    4.24
   8  -4 -11  206.69    4.67
   8  -4 -10   29.63    1.97
   8  -4 -10   33.55    2.20
   8   4 -10   31.94    2.27
   8   4 -10   25.82    1.72
   8  -4  -9  129.41    4.19
   8  -4  -9  136.69    4.51
   8   4  -9  136.18    4.65
   8  -4  -9  120.57    4.22
   8   4  -9  119.43    3.75
   8  -4  -8   14.22    1.74
   8   4  -8   12.00    1.43
   8  -4  -8   13.31    1.74
   8   4  -8   14.00    1.76
   8  -4  -8   12.88    1.57
   8   4  -8   12.15    1.45
   8  -4  -7  146.75    5.01
   8   4  -7  135.67    4.41
   8  -4  -7  141.11    4.91
   8   4  -7  140.57    4.92
   8  -4  -7  135.66    4.59
   8  -4  -7  124.40    3.74
   8  -4  -6   78.23    3.81
   8   4  -6   76.99    3.58
   8  -4  -6   79.47    3.81
   8  -4  -6   72.49    3.43
   8  -4  -6   68.56    3.06
   8  -4  -5   60.35    3.43
   8   4  -5   61.50    3.30
   8   4  -5   57.56    3.11
   8  -4  -5   50.37    2.83
   8  -4  -4    2.90    1.27
   8   4  -4    1.73    0.72
   8   4  -4    2.38    1.13
   8   4  -4    1.36    0.94
   8  -4  -4    2.91    0.94
   8  -4  -4    6.85    1.29
  -8   4   4    2.17    1.45
  -8  -4   4    6.04    2.03
   8   4  -3   32.70    2.59
   8   4  -3   27.39    2.14
  -8  -4   3   27.63    3.71
   8   4  -2   84.72    3.59
   8   4  -2   80.72    3.91
   8   4  -2   74.18    3.30
  -8   4   2   82.33    4.75
   8  -4  -2   71.26    3.67
   8   4  -1  409.75    8.50
  -8   4   1  386.37    9.86
   8   4   0  449.10    8.94
   8   4   0  460.00    9.18
  -8   4   0  418.96   10.15
   8  -4   0  410.30    9.03
   8   4   1  485.46    9.65
   8   4   1  492.15    9.58
  -8   4  -1  483.80   10.67
   8  -4   1  473.49    9.76
   8   4   2    7.93    1.64
   8   4   2    7.45    1.76
  -8   4  -2    7.68    1.81
   8  -4   2    8.17    1.70
  -8  -4  -2    6.15    2.36
   8   4   3  339.19    8.42
  -8   4  -3  320.39    8.49
   8  -4   3  342.86    8.42
   8   4   4   88.41    4.44
   8   4   4   77.76    4.01
  -8   4  -4   75.37    4.17
  -8  -4  -4   78.16    5.77
   8  -4   4   84.95    4.25
   8   4   5  280.79    7.80
   8   4   5  290.95    7.43
  -8  -4  -5  289.69   10.72
   8   4   6  108.88    4.83
   8   4   6  105.16    4.49
  -8   4  -6  100.15    4.46
  -8  -4  -6  109.30    6.42
   8  -4   6  112.43    4.79
   8  -4   7    1.34    0.94
   8   4   7    2.63    1.12
   8   4   7    4.03    1.35
  -8   4  -7    1.51    0.91
  -8   4  -7    0.75    0.87
  -8  -4  -7    1.02    1.54
   8   4   8   29.38    2.46
   8   4   8   34.80    2.51
  -8   4  -8   37.53    2.47
  -8   4  -8   33.75    2.35
   8  -4   8   36.34    2.56
   8   4   9    1.93    0.94
  -8   4  -9    1.84    1.01
  -8   4  -9    0.95    0.67
  -8  -4  -9    1.27    1.22
  -8   4 -10   49.64    2.70
  -8  -4 -10   53.80    3.12
  -8  -4 -10   53.01    2.99
  -8  -4 -10   48.24    3.19
  -8   4 -11   75.36    3.28
  -8   4 -11   75.44    3.09
  -8  -4 -11   70.52    2.83
  -8  -4 -11   70.70    2.75
  -8   4 -12   63.68    2.74
  -8   4 -12   61.04    2.56
  -8   4 -13   58.24    2.11
  -8  -4 -13   53.05    2.01
   8  -5 -12   15.05    0.84
   8  -5 -12   13.82    0.99
   8   5 -12   14.44    0.91
   8  -5 -11    2.50    0.79
   8   5 -11    3.14    0.92
   8  -5 -11    1.76    0.63
   8   5 -11    2.26    0.64
   8  -5 -10   10.74    1.16
   8  -5 -10   10.46    1.25
   8   5 -10   11.10    1.38
   8  -5 -10    9.90    1.12
   8   5 -10   10.00    1.09
   8  -5  -9   11.93    1.33
   8  -5  -9   12.04    1.51
   8   5  -9   11.60    1.52
   8  -5  -9   11.05    1.24
   8   5  -9   11.89    1.32
   8  -5  -8   81.55    3.35
   8  -5  -8   82.42    3.48
   8   5  -8   79.59    3.51
   8  -5  -8   80.96    3.13
   8   5  -8   81.23    3.18
   8  -5  -7   21.46    1.93
   8  -5  -7   17.23    1.90
   8   5  -7   19.12    1.91
   8  -5  -7   19.05    1.64
  -8   5   7   22.26    2.51
   8  -5  -7   15.94    1.37
   8   5  -7   17.75    1.74
   8   5  -6    1.27    0.89
   8  -5  -6    1.06    1.05
   8  -5  -6    0.59    0.64
   8   5  -6    0.83    0.93
   8  -5  -6    1.20    0.67
  -8   5   6    1.98    1.36
   8  -5  -5   17.75    2.10
   8   5  -5   17.76    1.94
   8   5  -5   19.55    1.88
  -8   5   5   20.31    2.62
   8  -5  -5   16.21    1.74
   8   5  -4    1.79    1.19
   8   5  -4    2.23    0.99
   8   5  -3  111.16    3.81
   8   5  -3  115.64    4.74
   8   5  -3  106.63    4.06
  -8   5   3  118.75    5.61
   8  -5  -3  101.20    4.41
   8   5  -2  206.10    5.47
   8   5  -2  210.01    6.26
   8   5  -2  200.95    5.40
  -8   5   2  203.02    7.14
   8  -5  -2  192.35    6.13
   8   5  -1  120.23    4.44
   8   5  -1  110.79    4.62
  -8   5   1  111.26    5.27
   8  -5  -1  109.29    4.75
   8   5   0   45.60    2.92
   8   5   0   50.76    3.27
  -8   5   0   46.49    3.49
  -8  -5   0   41.25    4.82
   8  -5   0   41.69    3.16
   8   5   1   20.29    2.12
  -8   5  -1   20.88    2.46
  -8  -5  -1   20.96    3.69
   8  -5   1   19.04    2.27
   8   5   2   71.09    3.85
   8   5   2   65.82    3.64
  -8   5  -2   70.89    4.12
   8  -5   2   75.91    4.05
   8   5   3   17.83    2.19
   8   5   3   20.79    2.22
  -8   5  -3   20.58    2.40
  -8  -5  -3   20.84    3.77
   8  -5   3   22.92    2.46
   8   5   4  501.34   10.21
   8   5   4  492.75    9.19
  -8   5  -4  499.64   10.02
  -8  -5  -4  494.60   14.81
   8   5   5    6.88    1.58
   8   5   5    9.06    1.60
   8  -5   5   11.22    1.71
  -8  -5  -5    9.20    2.65
   8   5   6   13.10    1.86
   8   5   6   14.28    1.69
  -8   5  -6   12.00    1.60
  -8  -5  -6   15.14    2.85
   8  -5   6   15.39    1.83
   8   5   7    2.41    1.08
   8   5   7    7.53    1.22
  -8   5  -7    3.56    1.00
  -8  -5  -7    2.80    1.82
   8  -5   7    3.63    1.03
  -8   5  -8   58.17    2.58
  -8   5  -8   57.25    2.64
  -8  -5  -9    0.76    0.97
  -8   5  -9    0.77    0.74
  -8  -5  -9    0.88    1.23
  -8   5 -10  164.62    4.39
  -8   5 -10  141.18    3.62
  -8  -5 -10  174.46    5.21
  -8  -5 -10  173.50    4.80
  -8  -5 -10  147.85    4.95
  -8   5 -11   61.95    2.17
  -8  -5 -11   69.59    2.71
  -8   5 -12   51.86    1.91
   8  -6 -11   14.57    0.95
   8   6 -11   14.04    0.90
   8  -6 -10   17.82    1.26
   8   6 -10   17.67    1.18
   8  -6  -9   89.34    2.72
   8  -6  -9   84.61    2.89
   8   6  -9   85.40    2.72
   8  -6  -8    4.04    0.96
   8  -6  -8    4.03    1.03
   8   6  -8    3.94    0.90
   8  -6  -7  176.21    4.56
   8  -6  -7  171.02    4.63
  -8   6   7  199.38    5.78
   8  -6  -7  142.60    3.43
   8   6  -7  159.01    4.24
   8  -6  -6    5.34    1.25
   8  -6  -6    4.97    1.23
   8  -6  -6    4.71    0.94
  -8   6   6    5.54    1.51
   8   6  -6    4.66    1.14
   8  -6  -5  292.11    6.88
   8   6  -5  281.78    6.50
   8  -6  -5  276.61    6.06
   8   6  -5  289.14    6.03
   8   6  -4   14.07    1.76
  -8  -6   4   11.25    2.10
  -8  -6   4    8.49    2.14
   8  -6  -4   12.56    1.59
   8   6  -4   12.24    1.55
   8   6  -3  171.02    5.33
  -8  -6   3  150.84    7.31
  -8   6   3  181.50    6.47
  -8  -6   3  146.46    7.90
   8  -6  -3  166.72    5.30
   8   6  -2    2.35    0.96
  -8  -6   2    1.63    1.75
   8  -6  -2    1.65    1.01
   8   6  -2    1.83    1.14
  -8   6   2    2.82    1.43
  -8  -6   2    1.78    2.07
   8   6  -1   79.64    3.81
  -8  -6   1   67.53    5.44
  -8   6   1   82.03    4.34
  -8  -6   1   66.70    5.98
   8  -6  -1   81.83    4.06
  -8   6   0   25.04    2.49
   8  -6   0   23.22    2.34
   8   6   1   16.78    1.97
  -8   6  -1   17.58    2.17
  -8  -6  -1   17.57    3.45
   8  -6   1   17.53    2.09
   8   6   2   25.91    2.24
  -8   6  -2   26.78    2.51
  -8  -6  -2   27.76    4.30
   8  -6   2   29.94    2.58
   8   6   3   14.18    1.73
  -8   6  -3   14.74    1.88
  -8  -6  -3   20.85    3.69
   8  -6   3   16.69    1.97
   8   6   4   14.08    1.68
  -8  -6  -4   14.71    2.79
  -8   6  -4   12.76    1.73
  -8  -6  -4   13.92    3.09
   8   6   5   67.26    2.89
  -8  -6  -5   73.70    5.12
  -8   6  -5   65.92    3.17
  -8  -6  -5   70.64    5.55
   8  -6   5   83.28    3.73
  -8  -6  -6    0.70    1.34
   8  -6   6    0.35    0.82
  -8   6  -6    0.50    0.80
  -8  -6  -6    0.55    1.66
  -8  -6  -7  294.49    8.18
  -8  -6  -7  299.32    9.14
   8  -6   7  307.62    5.91
  -8  -6  -9  148.41    4.54
  -8  -6  -9  134.13    4.84
  -8   6 -10   12.87    1.07
  -8  -6 -10   14.40    1.19
  -8  -6 -11    5.45    0.97
   8  -7  -9   44.31    1.37
   8  -7  -9   43.83    1.57
   8   7  -9   43.63    1.49
   8  -7  -8    6.98    0.78
   8  -7  -8    6.16    0.84
   8   7  -8    5.53    0.75
   8   7  -7    0.68    0.60
   8  -7  -7    0.06    0.59
   8  -7  -7    0.11    0.35
   8  -7  -7    0.14    0.66
   8  -7  -6  107.07    3.30
   8  -7  -6  103.62    3.22
   8  -7  -6  100.49    2.75
   8   7  -6   96.98    2.89
   8  -7  -5   55.53    2.63
   8  -7  -5   50.73    2.24
   8  -7  -4   35.49    2.28
   8  -7  -4   31.40    1.99
   8   7  -4   32.26    1.85
   8   7  -3    1.49    0.72
  -8  -7   3    1.38    1.24
   8  -7  -3    1.78    0.87
  -8   7   3    2.42    1.19
  -8  -7   3    2.72    1.63
  -8  -7   2    3.73    1.71
  -8   7   2    5.36    1.32
   8  -7  -2    5.17    1.15
  -8  -7   2    3.31    1.86
   8   7  -2    4.64    0.89
  -8  -7   1   17.82    2.85
  -8   7   1   19.63    2.09
  -8  -7   1   20.20    3.36
   8  -7  -1   21.04    1.92
   8   7  -1   17.76    1.37
   8   7   0   40.91    2.38
  -8   7   0   45.72    2.92
   8   7   1   21.79    1.78
  -8  -7  -1   21.68    3.22
  -8   7  -1   20.64    2.03
  -8  -7  -1   23.79    3.69
   8  -7   1   23.67    2.03
   8   7   2   61.48    2.64
  -8  -7  -2   66.99    5.06
  -8   7  -2   60.46    3.08
  -8  -7  -2   69.52    5.73
   8  -7   2   71.32    3.38
  -8  -7  -3   17.20    2.82
  -8   7  -3   14.63    1.59
  -8  -7  -3   16.26    3.09
   8  -7   3   17.45    1.74
  -8  -7  -4   47.87    3.96
  -8  -7  -4   45.73    4.41
  -8  -7  -5   14.10    2.37
  -8   7  -5   11.94    1.26
  -8  -7  -5   15.06    2.67
   8  -7   5   17.56    1.58
  -8  -7  -6  305.23    8.04
  -8  -7  -6  298.85    8.75
   8  -7   6  281.16    4.90
  -8  -7  -7    4.85    1.34
  -8  -7  -7    6.16    1.60
  -8   7  -8   57.39    1.80
  -8  -7  -8  105.69    4.14
  -8  -7  -9    0.06    0.75
   8  -8  -6    0.59    0.41
   8  -8  -6    0.10    0.40
   8  -8  -5    5.40    0.77
   8  -8  -5    3.53    0.64
  -8   8   5    5.85    0.79
   8  -8  -5    4.28    0.55
   8  -8  -4    2.58    0.71
   8  -8  -4    2.22    0.58
   8  -8  -3   30.17    1.75
   8  -8  -3   24.04    1.40
  -8   8   3   25.11    1.76
   8  -8  -3   28.38    1.60
   8  -8  -2    2.22    0.80
   8  -8  -2    2.02    0.70
   8  -8  -2    1.52    0.61
  -8   8   2    2.00    0.86
  -8  -8   1  191.36    6.24
  -8   8   1  186.53    4.68
   8  -8  -1  197.80    4.37
  -8  -8   0   25.05    2.69
  -8   8   0   21.90    1.71
  -8  -8   0   26.05    3.03
   8  -8   0   24.73    1.69
  -8   8  -1   72.92    2.85
   8  -8   1   83.24    2.88
  -8  -8  -2  113.96    5.27
  -8  -8  -2  115.74    5.80
   8  -8   2  101.43    3.14
  -8  -8  -3   55.46    3.60
  -8  -8  -3   51.50    3.87
  -8  -8  -4   13.63    1.93
  -8   8  -4    9.20    0.91
  -8  -8  -4   13.16    2.11
   8  -8   4   11.38    0.98
  -8  -8  -5   99.93    4.16
  -8  -8  -5  104.14    4.03
  -8  -8  -5  106.57    4.49
  -8  -8  -6    3.78    1.16
  -8  -8  -6    3.65    0.92
  -8  -8  -6    3.06    1.02
   9   0 -14    0.30    0.48
   9   0 -13  367.78    5.13
   9   0 -13  368.78    5.44
   9   0 -12    0.51    0.73
   9   0 -12    1.16    0.92
   9   0 -11  278.91    5.59
   9   0 -11  286.18    5.80
   9   0 -10    0.15    0.92
   9   0 -10    0.23    0.98
   9   0  -9   72.43    3.27
   9   0  -9   72.64    3.27
   9   0  -8    0.77    0.95
   9   0  -8    0.15    0.87
   9   0  -7  382.04    7.47
   9   0  -7  352.10    7.03
   9   0  -6    0.24    0.80
   9   0  -6    0.48    0.59
   9   0  -5   10.06    1.24
   9   0  -5    9.65    1.33
  -9   0   5    9.53    2.10
   9   0  -5   14.29    1.38
   9   0  -4    0.61    0.78
   9   0  -4    1.23    0.76
   9   0  -4   -0.20    0.69
  -9   0   4    0.64    1.42
   9   0  -3   15.69    1.55
   9   0  -3   14.99    1.46
  -9   0   3   16.02    2.62
   9   0  -3   14.09    1.54
   9   0  -3   15.70    1.53
   9   0  -2    1.85    1.03
   9   0  -2    0.11    0.75
   9   0  -2    0.28    0.70
  -9   0   2    1.40    1.61
   9   0  -1 1165.03   11.51
   9   0  -1 1147.95   12.91
  -9   0   1 1186.16   19.21
   9   0  -1 1151.16   12.79
   9   0   0    0.84    0.91
  -9   0   0    0.05    1.56
  -9   0  -1  683.00   14.01
   9   0   1  736.26   10.75
   9   0   2    0.26    0.97
  -9   0  -2   -0.04    1.44
  -9   0  -3  289.80    9.21
   9   0   3  295.10    7.26
   9   0   4    0.84    0.97
  -9   0  -4    2.63    1.56
  -9   0  -5  198.21    7.46
   9   0   5  196.95    6.09
  -9   0  -6    0.70    1.30
  -9   0  -7  454.05    9.97
  -9   0  -7  420.76   10.23
   9   0   8    0.05    0.80
  -9   0  -8    0.57    1.23
  -9   0  -8    0.58    1.30
  -9   0  -8    0.11    1.07
   9   0   9    3.57    1.06
  -9   0  -9    3.73    1.43
  -9   0  -9    2.23    1.15
   9   0  10   -0.02    0.64
  -9   0 -10    1.98    1.25
  -9   0 -10    0.07    0.82
  -9   0 -11  253.75    6.70
  -9   0 -11  238.21    6.45
  -9   0 -12    0.05    1.02
  -9   0 -12    0.27    1.04
  -9   0 -13   90.43    3.43
  -9   0 -13   81.07    3.21
  -9   0 -14    0.05    0.65
   9  -1 -14    6.79    0.75
   9   1 -14    6.68    0.74
   9  -1 -13    0.06    0.47
   9  -1 -13    0.08    0.59
   9   1 -13    0.29    0.66
   9  -1 -12   12.45    1.20
   9   1 -12   12.85    1.27
   9  -1 -12   11.76    1.27
   9   1 -12   12.01    1.33
   9  -1 -11   15.38    1.43
   9   1 -11   17.23    1.56
   9  -1 -11   18.08    1.61
   9   1 -11   18.19    1.68
   9  -1 -10   19.06    1.69
   9   1 -10   18.40    1.72
   9  -1 -10   18.45    1.75
   9   1 -10   18.28    1.76
   9  -1 -10   18.10    1.96
   9   1 -10   15.42    1.19
   9  -1  -9  326.21    6.76
   9   1  -9  336.36    6.76
   9  -1  -9  320.56    6.62
   9   1  -9  322.97    6.65
   9  -1  -9  317.39    7.64
   9  -1  -8   19.13    1.95
   9   1  -8   19.42    1.85
   9   1  -8   14.28    1.28
   9  -1  -8   18.14    1.86
   9   1  -8   19.08    1.86
   9  -1  -8   16.32    2.02
   9  -1  -7  165.00    5.01
   9   1  -7  157.42    4.81
   9   1  -7  153.28    4.15
   9  -1  -7  153.48    4.74
   9   1  -7  154.25    4.77
   9  -1  -6   27.17    2.18
   9   1  -6   26.75    2.08
   9   1  -6   24.64    2.00
  -9   1   6   23.61    2.83
   9   1  -6   24.28    1.83
   9  -1  -6   26.69    1.71
   9   1  -5  118.18    3.54
   9  -1  -5  110.16    4.11
   9   1  -5  107.59    3.87
   9   1  -5  109.89    3.73
   9  -1  -5  113.60    3.96
   9   1  -5  114.92    3.89
  -9   1   5  118.92    6.18
   9  -1  -5  109.06    3.58
   9   1  -4  121.39    3.98
   9   1  -4  118.45    3.99
   9  -1  -4  124.66    3.65
   9  -1  -4  124.47    4.00
   9   1  -4  123.24    3.93
  -9   1   4  140.68    6.65
  -9  -1   4  113.13    6.34
   9  -1  -4  124.06    4.01
   9   1  -4  137.62    4.10
   9  -1  -3    0.58    0.82
   9   1  -3    1.60    0.84
   9  -1  -3    0.72    0.73
   9   1  -3    1.70    0.83
   9  -1  -3    0.71    0.79
   9   1  -3   -0.08    0.88
   9  -1  -3    0.20    0.75
   9   1  -3    0.18    0.71
  -9  -1   3    3.14    1.67
   9  -1  -2  514.93    8.19
   9   1  -2  537.76    7.98
   9  -1  -2  517.64    8.20
   9  -1  -2  544.48    7.87
   9   1  -2  550.02    7.79
  -9  -1   2  521.22   13.20
   9   1  -2  565.01    8.90
   9  -1  -1    2.36    0.92
   9   1  -1    0.47    0.64
   9  -1  -1    0.81    0.83
   9   1  -1    1.20    0.88
   9  -1  -1    3.41    1.16
   9   1  -1    4.05    1.29
  -9   1   1    2.57    1.62
   9  -1   0  187.53    4.72
   9   1   0  182.02    5.65
  -9   1   0  195.16    7.44
  -9  -1   0  190.49    7.96
   9  -1   0  187.94    5.45
   9   1   0  201.14    5.68
   9  -1   1    3.80    1.12
   9   1   1    4.45    1.46
  -9  -1  -1    9.29    2.28
  -9   1  -1    3.99    1.65
   9   1   1    7.88    1.40
   9   1   2   47.54    3.24
  -9   1  -2   44.79    3.69
  -9  -1  -2   47.98    4.14
   9  -1   2   55.04    3.19
   9   1   2   49.77    3.11
  -9  -1  -3 1026.36   17.91
   9  -1   3 1038.21   13.47
   9   1   3 1068.09   13.87
  -9   1  -4  180.10    7.00
  -9  -1  -4  179.52    7.69
   9  -1   4  183.89    5.81
   9   1   4  178.09    5.93
  -9  -1  -5  190.06    6.14
  -9   1  -5  196.32    7.28
  -9  -1  -5  195.15    7.85
   9  -1   5  206.45    6.18
   9   1   5  198.00    6.16
   9   1   6  197.30    6.17
  -9  -1  -6  196.09    6.34
  -9  -1  -6  204.95    7.80
  -9  -1  -7    4.98    1.46
  -9  -1  -7    8.33    1.91
  -9   1  -7    6.01    1.65
   9  -1   7    5.51    1.34
   9   1   8  174.90    5.60
  -9  -1  -8  183.18    6.11
  -9   1  -8  198.35    6.13
  -9  -1  -8  208.01    7.13
  -9   1  -8  180.77    6.28
  -9  -1  -8  192.23    6.97
   9  -1   8  185.79    5.72
   9  -1   9   10.30    1.48
   9   1   9   10.99    1.59
  -9   1  -9   10.02    1.93
  -9  -1  -9    9.87    1.77
  -9   1  -9   11.16    1.79
  -9  -1  -9   10.86    2.01
  -9   1  -9   12.83    1.83
  -9  -1  -9    9.79    1.82
   9  -1  10  191.90    4.87
   9   1  10  190.63    5.19
  -9   1 -10  180.65    6.01
  -9  -1 -10  179.95    5.85
  -9   1 -10  172.56    5.46
  -9  -1 -10  181.12    6.15
  -9  -1 -10  173.79    5.42
  -9   1 -11   33.73    2.69
  -9  -1 -11   38.30    2.76
   9   1  11   33.83    2.57
  -9   1 -11   32.21    2.45
  -9  -1 -11   35.20    2.75
  -9   1 -12  138.43    4.65
  -9  -1 -12  140.93    4.60
   9   1  12  128.11    3.97
  -9   1 -12  126.17    4.14
  -9  -1 -12  131.91    4.64
  -9   1 -13    5.99    1.19
  -9  -1 -13    4.46    1.05
  -9   1 -13    4.57    0.98
  -9   1 -14   49.71    2.12
  -9  -1 -14   44.05    1.89
   9  -2 -14   15.81    0.91
   9   2 -14   15.95    0.97
   9  -2 -13    1.96    0.52
   9   2 -13    3.32    0.73
   9  -2 -13    2.43    0.60
   9   2 -12    0.19    0.28
   9  -2 -12    1.01    0.58
   9  -2 -12    0.64    0.63
   9   2 -12    0.31    0.73
   9   2 -11    2.26    0.58
   9  -2 -11    5.22    0.96
   9  -2 -11    2.62    0.90
   9   2 -11    3.50    1.02
   9  -2 -11    3.77    1.07
   9  -2 -10    6.56    1.12
   9   2 -10    5.97    1.19
   9  -2 -10    6.20    1.19
   9   2 -10    6.52    1.23
   9  -2 -10    5.78    1.25
   9   2 -10    5.77    0.84
   9  -2  -9  144.94    4.47
   9   2  -9  145.19    4.60
   9  -2  -9  151.00    4.57
   9   2  -9  153.03    4.67
   9  -2  -8   50.17    2.81
   9   2  -8   51.45    2.79
   9   2  -8   40.33    2.14
   9  -2  -8   47.11    2.72
   9   2  -8   47.08    2.74
   9  -2  -8   43.29    2.85
   9  -2  -7   19.83    2.04
   9   2  -7   19.66    1.87
   9   2  -7   17.76    1.64
   9  -2  -7   19.37    1.95
   9  -2  -7   14.79    1.93
   9  -2  -6  210.52    5.78
   9   2  -6  193.52    4.99
   9   2  -6  202.78    5.39
  -9   2   6  205.09    7.76
   9  -2  -6  188.62    4.55
   9   2  -5  718.30    8.54
   9   2  -5  738.74    9.89
   9   2  -5  698.24    9.64
   9  -2  -5  725.13    9.96
   9   2  -5  717.62    9.76
   9  -2  -5  700.14    9.24
   9   2  -4  148.75    4.22
   9  -2  -4  135.78    4.68
   9   2  -4  139.84    4.29
   9  -2  -4  138.53    4.32
   9   2  -4  144.55    4.40
   9  -2  -4  139.22    4.32
   9   2  -3  677.62    9.34
   9  -2  -3  635.36    9.70
   9   2  -3  675.41    9.07
   9   2  -3  678.32   10.05
   9  -2  -3  658.00    9.17
   9   2  -3  693.60    9.29
  -9  -2   3  590.74   14.91
   9  -2  -3  628.00    9.46
   9   2  -2   56.57    2.87
   9  -2  -2   57.74    2.95
   9   2  -2   54.88    2.61
   9  -2  -2   53.30    2.64
   9   2  -2   51.44    3.04
   9  -2  -2   54.45    2.67
   9   2  -2   53.54    2.61
  -9  -2   2   52.72    4.73
   9  -2  -2   53.75    2.97
   9  -2  -1   48.69    2.67
   9  -2  -1   47.86    2.67
   9   2  -1   51.38    3.14
   9  -2  -1   52.29    2.49
  -9   2   1   54.66    4.10
   9  -2  -1   52.60    2.96
   9   2   0    7.70    1.30
   9  -2   0    6.78    1.17
   9   2   0    8.68    1.63
  -9   2   0    8.52    1.88
  -9  -2   0    7.63    2.24
   9  -2   0    6.60    1.32
   9   2   1    4.80    1.14
   9  -2   1    5.06    1.01
   9   2   1    4.71    1.45
  -9   2  -1    4.44    1.59
  -9  -2  -1    5.80    2.09
   9  -2   1    3.94    1.14
   9   2   2   11.94    1.68
   9   2   2   10.40    1.92
  -9   2  -2   12.13    2.12
  -9  -2  -2    9.27    2.42
   9  -2   2   11.59    1.65
   9   2   3  331.74    7.81
   9   2   3  349.60    8.33
  -9   2  -3  332.16    9.22
  -9  -2  -3  338.92   11.10
   9  -2   3  322.11    7.66
   9   2   4   83.92    4.02
   9   2   4   89.59    4.43
  -9   2  -4   86.22    4.78
  -9  -2  -4   93.69    5.91
   9  -2   4   88.59    4.14
   9   2   5   42.81    3.00
   9   2   5   50.70    3.44
  -9   2  -5   40.16    3.36
  -9  -2  -5   42.84    4.05
   9  -2   5   46.71    3.11
   9   2   6  179.68    5.92
   9   2   6  185.28    6.28
  -9  -2  -6  190.76    7.97
  -9  -2  -7  968.22   13.41
  -9   2  -7  934.24   14.14
   9   2   8   71.73    3.73
  -9  -2  -8   74.49    3.93
   9   2   8   77.05    4.01
  -9   2  -8   76.05    3.67
  -9   2  -8   70.24    3.77
  -9  -2  -8   78.72    4.64
   9  -2   8   80.92    3.78
   9   2   9  296.85    6.97
  -9  -2  -9  296.01    7.31
   9   2   9  294.95    7.13
  -9   2  -9  289.13    6.68
  -9   2  -9  275.20    6.63
  -9  -2  -9  292.59    7.89
   9  -2   9  303.26    6.57
   9   2  10   12.33    1.43
  -9   2 -10   12.24    1.82
  -9  -2 -10   12.19    1.71
   9   2  10   11.12    1.60
  -9   2 -10   11.62    1.56
  -9  -2 -10   10.30    1.59
  -9   2 -11   40.49    2.71
  -9  -2 -11   40.10    2.57
   9   2  11   36.82    2.27
  -9   2 -11   37.76    2.33
  -9   2 -12    0.68    0.98
  -9  -2 -12    2.45    0.89
  -9   2 -12    0.18    0.72
  -9   2 -13    1.07    0.75
  -9  -2 -13    0.75    0.60
  -9   2 -13    0.41    0.56
  -9   2 -14    0.30    0.49
   9  -3 -13    1.02    0.37
   9  -3 -13    0.43    0.43
   9   3 -13    0.66    0.50
   9  -3 -12    1.24    0.55
   9  -3 -12    1.43    0.68
   9   3 -12    2.01    0.73
   9   3 -12    1.92    0.41
   9  -3 -11   89.84    2.82
   9  -3 -11   85.42    2.96
   9  -3 -11   87.60    3.28
   9   3 -11   83.45    2.33
   9  -3 -10   28.91    1.89
   9  -3 -10   29.43    1.98
   9   3 -10   31.86    2.14
   9  -3 -10   28.78    2.10
   9  -3  -9   58.21    2.77
   9  -3  -9   53.85    2.73
   9   3  -9   56.51    2.89
   9  -3  -8  179.12    5.12
   9   3  -8  157.87    4.19
   9  -3  -8  184.35    5.08
   9   3  -8  190.53    5.24
   9  -3  -8  165.20    5.00
   9  -3  -7   19.45    1.96
   9   3  -7   18.22    1.69
   9  -3  -7   20.11    1.93
   9  -3  -7   17.78    1.90
   9  -3  -7   17.48    1.36
   9  -3  -6   61.15    3.24
   9   3  -6   60.56    2.98
   9  -3  -6   57.05    3.02
   9   3  -6   61.51    3.14
   9  -3  -6   56.52    3.13
  -9   3   6   66.16    4.50
   9  -3  -6   56.41    2.55
   9  -3  -5  429.86    8.54
   9   3  -5  402.32    6.36
   9   3  -5  426.67    7.66
   9   3  -5  427.08    7.95
   9  -3  -5  411.60    7.71
   9   3  -5  441.22    7.86
   9  -3  -5  417.70    7.29
   9   3  -4    3.16    0.91
   9  -3  -4    0.89    1.08
   9   3  -4    1.98    0.92
   9  -3  -4    1.37    0.84
   9   3  -4    0.85    1.04
   9  -3  -4    0.82    0.97
   9   3  -4    0.91    0.90
  -9   3   4    0.67    1.43
  -9  -3   4    1.55    1.65
   9   3  -3   81.06    3.33
   9   3  -3   83.35    3.83
   9  -3  -3   79.03    3.33
   9   3  -3   85.74    3.42
   9  -3  -2    2.55    1.10
   9   3  -2    2.40    0.93
   9   3  -2    1.79    1.20
   9  -3  -2    1.65    0.93
   9   3  -2    1.62    0.78
   9  -3  -2    3.69    1.12
  -9   3   2    4.34    1.80
  -9  -3   2    2.17    1.82
   9  -3  -1    2.68    0.98
   9  -3  -1    2.69    0.93
   9   3  -1    2.87    1.29
   9  -3  -1    2.55    0.84
   9  -3  -1    4.33    1.18
  -9   3   1    3.30    1.53
   9   3   0   97.49    4.14
   9  -3   0   88.18    3.62
   9   3   0   98.43    4.36
  -9   3   0   96.52    5.10
  -9  -3   0   90.78    6.28
   9  -3   0   92.63    4.06
   9   3   1  408.20    8.57
   9  -3   1  377.95    7.15
   9   3   1  388.35    8.70
  -9   3  -1  398.04   10.04
  -9  -3  -1  362.88   12.32
   9  -3   1  380.92    8.44
   9   3   2  246.53    6.89
   9  -3   2  242.31    5.50
   9   3   2  238.32    6.93
  -9   3  -2  231.67    7.71
  -9  -3  -2  226.67    9.73
   9  -3   2  239.34    6.69
   9   3   3   19.33    2.22
   9   3   3   15.89    2.23
  -9   3  -3   14.84    2.35
  -9  -3  -3   16.93    3.12
   9  -3   3   17.42    2.14
   9   3   4  407.49    9.22
   9   3   4  409.04    8.98
  -9   3  -4  383.12    9.46
  -9  -3  -4  402.20   12.37
   9  -3   4  426.20    8.88
   9   3   5   26.93    2.57
   9   3   5   27.60    2.64
  -9   3  -5   26.53    2.72
  -9  -3  -5   28.75    3.70
   9  -3   5   26.60    2.42
   9   3   6  180.55    6.05
  -9  -3  -6  173.21    7.59
   9  -3   6  191.16    5.98
   9   3   7  330.02    7.85
   9   3   7  332.51    7.71
  -9   3  -7  304.15    7.64
  -9  -3  -7  320.22    9.86
   9  -3   7  347.20    7.62
   9   3   8   28.95    2.40
   9   3   8   24.74    2.30
  -9   3  -8   28.27    2.35
   9  -3   8   29.82    2.26
   9   3   9   85.39    3.59
   9   3   9   83.05    3.59
  -9   3  -9   85.59    3.34
  -9  -3  -9   85.45    4.35
   9  -3   9   92.14    3.42
   9   3  10   17.80    1.58
  -9   3 -10   19.99    2.06
  -9   3 -10   16.76    1.56
  -9  -3 -10   15.11    1.84
   9   3  10   15.84    1.53
  -9   3 -11  113.75    3.99
  -9   3 -11   93.13    2.98
  -9   3 -12   10.03    1.30
  -9   3 -12    5.59    0.81
  -9   3 -13  173.35    3.70
   9  -4 -12  101.99    2.40
   9   4 -12  107.21    2.71
   9  -4 -11   55.87    1.99
   9  -4 -11   58.67    2.20
   9   4 -11   62.60    2.38
   9  -4 -10  115.59    3.25
   9  -4 -10  116.55    3.39
   9   4 -10  121.87    3.59
   9  -4 -10  114.78    3.42
   9   4 -10  109.83    2.89
   9   4  -9    1.31    0.72
   9  -4  -9    1.18    0.85
   9  -4  -9    0.82    0.89
   9   4  -9    1.18    0.93
   9  -4  -9    0.99    0.72
   9  -4  -8   90.72    3.45
   9  -4  -8   91.03    3.45
   9   4  -8   92.89    3.49
   9  -4  -8   85.94    3.30
   9   4  -8   86.03    3.11
   9  -4  -7  177.49    4.96
   9   4  -7  156.95    4.34
   9  -4  -7  163.70    4.72
  -9   4   7  185.29    6.33
   9  -4  -7  146.98    3.52
   9  -4  -6   11.49    1.60
   9   4  -6   11.01    1.46
   9  -4  -6   11.10    1.50
   9   4  -6   11.01    1.45
  -9   4   6   12.97    2.12
   9  -4  -6    9.58    1.13
   9  -4  -5    1.58    1.06
   9  -4  -5    2.04    0.83
   9   4  -5    1.56    1.06
   9   4  -5    1.33    0.86
  -9   4   5    3.65    1.62
   9  -4  -4   14.95    1.74
   9   4  -4   11.58    1.20
   9   4  -4   15.38    1.88
   9  -4  -4   13.77    1.64
   9   4  -4   15.06    1.60
  -9   4   4   17.05    2.53
  -9  -4   4    9.70    2.33
   9  -4  -4   16.52    1.70
   9  -4  -3   11.05    1.63
   9   4  -3    8.65    1.21
   9   4  -3    7.21    1.56
   9  -4  -3    7.65    1.31
   9   4  -3    8.53    1.24
   9  -4  -3    6.41    1.26
  -9  -4   3    5.90    2.13
   9   4  -2  169.13    4.98
   9   4  -2  161.88    5.49
   9  -4  -2  146.89    4.50
   9   4  -2  164.40    4.52
  -9   4   2  171.34    7.00
  -9  -4   2  133.28    7.66
   9  -4  -2  153.67    5.13
   9  -4  -1  401.61    8.05
   9   4  -1  433.47    8.89
   9  -4  -1  402.51    7.03
  -9   4   1  429.40   10.92
  -9  -4   1  381.94   13.03
   9  -4  -1  394.72    8.32
   9  -4   0  610.74    9.63
   9   4   0  708.32   11.27
   9   4   0  684.00   11.43
   9  -4   0  657.42    8.59
  -9   4   0  674.61   13.33
  -9  -4   0  612.46   16.58
   9  -4   0  630.40   10.77
   9  -4   1  268.13    6.22
   9   4   1  308.07    7.54
   9   4   1  298.72    7.50
  -9   4  -1  272.01    8.47
  -9  -4  -1  262.02   11.06
   9  -4   1  276.05    7.25
   9  -4   2  161.45    4.78
   9   4   2  161.69    5.64
  -9   4  -2  154.82    6.24
  -9  -4  -2  157.55    8.50
   9  -4   2  166.10    5.68
   9  -4   3    9.45    1.25
   9   4   3   11.43    1.84
   9   4   3   10.08    1.73
  -9   4  -3   10.77    1.91
  -9  -4  -3   10.74    2.79
   9  -4   3   10.91    1.74
   9   4   4   43.30    3.12
  -9   4  -4   41.87    3.10
  -9  -4  -4   37.05    4.18
   9  -4   4   45.60    2.96
   9   4   5  173.45    5.47
  -9   4  -5  168.91    5.78
  -9  -4  -5  178.93    8.10
   9   4   6    5.58    1.37
  -9   4  -6    4.87    1.28
   9   4   6    6.35    1.40
  -9  -4  -6    6.33    2.17
   9  -4   6    5.98    1.29
   9   4   7    4.65    1.26
   9   4   7    4.70    1.23
  -9   4  -7    3.86    1.10
  -9  -4  -7    4.11    1.83
   9  -4   7    5.19    1.13
   9   4   8   40.95    2.37
  -9   4  -8   37.03    2.29
   9  -4   8   45.52    2.45
  -9  -4  -9   22.15    1.95
  -9  -4  -9   20.97    2.31
  -9   4 -10   41.73    2.40
  -9  -4 -10   41.23    2.28
  -9  -4 -10   35.17    2.37
  -9   4 -11  136.81    3.75
  -9   4 -12  149.84    3.40
   9  -5 -11   13.94    0.93
   9   5 -11   13.29    0.81
   9   5 -10    0.03    0.47
   9  -5 -10    0.02    0.47
   9  -5 -10    0.46    0.57
   9  -5  -9   63.13    2.35
   9  -5  -9   58.66    2.34
   9   5  -9   64.23    2.51
   9   5  -9   61.04    2.21
   9  -5  -8   70.92    2.76
   9  -5  -8   71.86    2.79
   9   5  -8   69.13    2.78
   9   5  -8   69.18    2.59
   9  -5  -7   79.33    3.16
   9  -5  -7   74.35    3.01
  -9   5   7   81.72    3.73
   9   5  -7   76.63    2.94
   9   5  -6    3.93    1.02
   9  -5  -6    4.61    1.19
   9   5  -6    3.78    1.12
   9  -5  -6    5.11    1.13
   9   5  -6    4.60    1.04
  -9   5   6    5.54    1.48
   9  -5  -6    3.80    0.79
   9  -5  -5    1.72    0.99
   9  -5  -5    1.83    0.77
   9   5  -5    2.05    1.09
   9   5  -5    2.84    0.93
  -9   5   5    2.68    1.34
   9  -5  -4  170.18    5.11
   9   5  -4  167.04    5.24
   9  -5  -4  158.48    4.59
   9   5  -4  173.35    4.52
  -9  -5   4  127.35    6.11
  -9   5   4  186.20    6.77
  -9  -5   4  131.46    6.61
   9  -5  -3   30.98    2.41
   9   5  -3   30.43    1.88
   9   5  -3   34.25    2.63
   9  -5  -3   30.68    2.13
  -9   5   3   34.09    3.14
  -9  -5   3   23.74    3.39
   9  -5  -3   30.61    2.22
   9  -5  -2   33.60    2.49
   9   5  -2   34.19    2.12
   9   5  -2   29.52    2.48
   9  -5  -2   29.26    2.08
  -9   5   2   36.38    3.25
  -9  -5   2   26.74    3.80
   9  -5  -2   32.44    2.43
   9   5  -1   86.04    3.54
   9   5  -1   87.69    4.00
   9  -5  -1   81.27    3.16
  -9   5   1   90.24    4.70
  -9  -5   1   73.40    5.92
   9  -5  -1   79.56    3.75
   9   5   0   88.82    3.77
   9   5   0   78.02    3.79
   9  -5   0   72.07    2.87
  -9   5   0   84.74    4.61
   9  -5   0   82.14    3.85
   9   5   1    9.39    1.52
   9   5   1    8.91    1.59
  -9   5  -1    9.04    1.86
   9  -5   1    8.75    1.52
  -9  -5  -1    7.17    2.66
   9   5   2   10.59    1.59
  -9   5  -2   19.68    2.25
  -9  -5  -2   16.48    3.27
   9  -5   2   12.16    1.70
   9  -5   3  249.03    5.46
   9   5   3  240.52    6.20
  -9   5  -3  243.70    6.94
  -9  -5  -3  247.61   10.27
   9  -5   3  267.28    6.85
   9   5   4  128.16    4.75
   9   5   4  116.31    4.25
  -9   5  -4  114.58    4.57
  -9  -5  -4  117.08    7.04
   9  -5   4  125.14    4.57
   9   5   5  201.62    5.85
   9   5   5  200.45    5.26
  -9  -5  -5  198.75    8.52
   9   5   6    6.83    1.30
   9   5   6    7.42    1.23
  -9   5  -6    7.27    1.27
  -9  -5  -6    8.01    2.16
   9  -5   6    8.04    1.27
   9   5   7    4.22    0.90
  -9   5  -7    4.12    0.96
  -9  -5  -7    3.31    1.68
   9  -5   7    4.86    0.95
  -9   5  -8   66.52    2.43
   9  -5   8   74.89    2.50
  -9  -5  -9  157.88    4.49
  -9  -5  -9  168.86    4.73
  -9  -5  -9  161.69    5.19
  -9   5 -10   39.69    1.91
  -9   5 -11   80.94    2.22
   9   6 -10   15.56    0.79
   9  -6  -9   37.89    1.44
   9  -6  -9   35.62    1.48
   9   6  -9   35.10    1.42
   9  -6  -8   95.35    2.61
   9  -6  -8   89.60    2.61
   9   6  -8   86.95    2.45
   9  -6  -7   21.84    1.49
   9  -6  -7   18.73    1.41
   9   6  -7   19.61    1.41
   9  -6  -6  154.69    4.03
   9  -6  -6  147.74    3.74
   9  -6  -6  147.35    3.18
   9   6  -6  148.34    3.71
   9  -6  -5    3.42    1.03
  -9   6   5    4.77    1.37
   9  -6  -5    3.74    0.84
   9   6  -5    3.58    0.97
   9   6  -4  376.22    6.83
   9  -6  -4  372.55    6.16
   9   6  -4  369.85    6.28
   9  -6  -3    7.69    1.33
   9   6  -3    7.15    1.36
   9  -6  -3    6.89    1.10
  -9  -6   3    7.39    1.77
  -9   6   3    8.56    1.72
   9  -6  -3    7.31    1.16
  -9  -6   3    5.08    1.93
   9  -6  -2   78.32    3.36
   9   6  -2   69.10    3.18
   9  -6  -2   74.63    2.81
  -9  -6   2   75.51    5.02
  -9   6   2   79.05    4.11
  -9  -6   2   70.31    5.25
   9  -6  -2   69.57    3.16
   9   6  -2   68.68    2.79
   9   6  -1   12.68    1.65
   9  -6  -1   11.17    1.19
  -9  -6   1   13.37    2.51
  -9   6   1   14.84    2.02
  -9  -6   1   12.88    2.88
   9  -6  -1   13.29    1.53
   9   6  -1   12.96    1.34
   9  -6   0    5.43    1.16
   9  -6   0    5.32    0.86
   9  -6   0    4.91    1.13
  -9   6   0    5.12    1.38
   9   6   0    4.55    0.94
   9   6   1    0.33    0.58
  -9  -6  -1    1.75    1.80
   9  -6   1    0.44    0.81
   9   6   1    0.60    0.95
  -9   6  -1    0.59    0.99
  -9  -6  -1   -0.37    1.89
   9  -6   2   40.73    2.25
   9   6   2   44.32    2.52
  -9  -6  -2   43.07    4.15
  -9   6  -2   44.44    2.89
  -9  -6  -2   50.21    4.69
   9  -6   2   44.28    2.62
   9  -6   3   16.57    1.41
   9   6   3   19.02    1.68
  -9  -6  -3   18.83    2.89
  -9   6  -3   17.12    1.81
  -9  -6  -3   21.99    3.44
   9  -6   3   20.14    1.85
   9   6   4   24.03    1.73
  -9  -6  -4   24.35    2.95
  -9   6  -4   21.30    1.91
  -9  -6  -4   24.72    3.30
   9  -6   4   22.00    1.83
   9   6   5   34.87    1.73
  -9  -6  -5   41.71    3.45
  -9  -6  -5   42.82    3.87
   9  -6   5   44.20    2.32
  -9  -6  -6  139.67    5.51
  -9  -6  -6  142.89    6.12
   9  -6   6  150.12    3.82
  -9  -6  -7    0.61    1.10
   9  -6   7    1.05    0.51
  -9   6  -7    0.84    0.53
  -9  -6  -7    1.47    1.34
  -9  -6  -8  284.58    6.17
   9  -7  -7   27.80    1.15
   9   7  -7   28.89    1.12
   9  -7  -6    2.41    0.59
   9  -7  -6    1.50    0.52
   9  -7  -5   87.30    2.59
  -9   7   5   83.51    2.84
   9  -7  -5   80.06    2.08
   9   7  -5   75.52    2.10
   9  -7  -4   23.29    1.53
   9  -7  -4   18.98    1.22
  -9   7   4   24.85    1.83
   9   7  -4   20.40    1.19
   9  -7  -3    6.62    1.02
   9  -7  -3    5.74    0.77
  -9   7   3    7.28    1.26
   9  -7  -3    6.87    0.96
   9   7  -3    5.66    0.74
   9  -7  -2   41.04    2.03
   9  -7  -2   26.58    1.36
  -9  -7   2   35.02    2.75
  -9   7   2   37.91    2.36
  -9  -7   2   36.76    3.04
   9  -7  -2   38.22    1.97
   9   7  -2   29.99    1.37
   9  -7  -1   24.32    1.63
  -9  -7   1   27.61    2.71
  -9   7   1   24.41    1.95
  -9  -7   1   26.75    3.00
   9  -7  -1   22.35    1.62
   9  -7   0   46.24    2.15
  -9  -7   0   58.45    3.96
  -9   7   0   51.78    2.67
  -9  -7   0   59.74    4.40
   9  -7   0   52.54    2.42
   9  -7   1   99.83    2.94
  -9  -7  -1  133.82    5.90
  -9   7  -1  105.49    3.70
  -9  -7  -1  137.17    6.54
   9  -7   1  114.27    3.54
   9  -7   2    9.16    0.95
  -9  -7  -2   16.43    2.41
  -9   7  -2   14.09    1.46
  -9  -7  -2   16.32    2.71
   9  -7   2   17.10    1.47
  -9  -7  -3   59.43    3.82
  -9   7  -3   47.85    2.29
  -9  -7  -3   58.73    4.23
   9  -7   3   55.35    2.35
  -9  -7  -4   53.15    3.44
  -9  -7  -4   56.36    3.93
   9  -7   4   50.96    2.09
  -9  -7  -5  150.50    5.09
  -9  -7  -5  148.48    5.71
   9  -7   5  141.91    3.00
  -9  -7  -6   10.61    1.47
  -9  -7  -6    8.99    1.56
  -9  -7  -7   85.13    2.99
  -9  -7  -7   75.71    2.97
  -9   8   2   48.66    1.80
   9  -8  -2   50.17    1.55
   9  -8  -1    1.33    0.47
  -9   8   1    0.94    0.55
  -9   8   0   63.19    2.14
   9  -8   0   69.37    1.98
  -9   8  -1   45.82    1.75
   9  -8   1   55.85    1.75
  10   0 -13    0.20    0.40
  10   0 -12   82.25    2.40
  10   0 -12   85.98    2.49
  10   0 -11    0.09    0.64
  10   0 -11   -0.04    0.68
  10   0 -10   16.05    1.44
  10   0 -10   16.41    1.45
  10   0  -9    0.01    0.40
  10   0  -9    0.81    0.81
  10   0  -9    0.49    0.76
  10   0  -8  259.24    5.60
  10   0  -8  251.98    5.41
  10   0  -7    1.38    0.97
  10   0  -6  205.38    4.27
  10   0  -6  220.26    5.13
  10   0  -5   -0.02    0.77
  10   0  -5    0.46    0.63
  10   0  -5    0.84    0.71
  10   0  -5    0.23    0.75
 -10   0   5    0.23    1.30
  10   0  -4   25.59    1.91
  10   0  -4   24.07    1.81
  10   0  -4   27.41    1.87
 -10   0   4   26.66    3.17
  10   0  -4   28.36    1.91
  10   0  -3    0.18    0.66
  10   0  -3    0.22    0.67
  10   0  -3    0.20    0.60
 -10   0   3    0.20    1.45
  10   0  -2  163.08    4.30
  10   0  -2  156.92    4.76
  10   0  -1    0.69    0.63
  10   0  -1   -0.05    0.78
  10   0  -1    0.19    1.02
 -10   0   1   -0.05    1.51
 -10   0   0  212.69    8.38
  10   0   0  215.89    5.83
  10   0   1    0.41    0.92
  10   0   1    1.23    1.24
 -10   0  -1   -0.05    1.43
  10   0   2    6.14    1.72
  10   0   2    5.32    1.26
  10   0   3    0.25    0.94
 -10   0  -3   -0.69    1.58
 -10   0  -4  117.07    5.95
  10   0   4  138.08    5.05
  10   0   5    4.16    1.29
 -10   0  -5    0.26    1.42
 -10   0  -6   34.76    2.66
 -10   0  -6   37.80    3.32
  10   0   6   35.56    2.62
 -10   0  -7    0.40    1.01
  10   0   8   34.03    2.34
 -10   0  -8   31.38    2.52
 -10   0  -8   35.37    2.88
  10   0   9   -0.08    0.71
 -10   0  -9   -0.02    0.93
 -10   0  -9    0.78    0.97
  10   0  10  223.32    4.52
 -10   0 -10  198.55    4.73
 -10   0 -11   -0.26    0.77
 -10   0 -12   23.33    1.57
  10   0  12   24.01    1.56
  10  -1 -13    4.44    0.57
  10   1 -13    4.25    0.58
  10  -1 -12    0.60    0.49
  10  -1 -12    0.43    0.54
  10   1 -12    0.57    0.59
  10  -1 -11   15.00    1.22
  10   1 -11   15.54    1.28
  10  -1 -11   14.54    1.25
  10   1 -11   15.30    1.31
  10  -1 -10    9.54    1.20
  10   1 -10    7.96    1.11
  10  -1 -10    8.76    1.12
  10   1 -10    9.38    1.20
  10   1 -10    6.09    0.68
  10  -1  -9   14.88    1.49
  10   1  -9   15.02    1.46
  10  -1  -9   15.32    1.51
  10   1  -9   14.98    1.49
  10  -1  -8    0.95    0.89
  10   1  -8    0.44    0.79
  10  -1  -8    0.36    0.79
  10  -1  -7   48.97    2.68
  10   1  -7   49.32    2.54
  10   1  -7   41.45    1.99
  10   1  -7   48.35    2.48
  10  -1  -6   15.69    1.64
  10   1  -6   15.71    1.44
  10  -1  -6   13.94    1.51
  10   1  -6   16.37    1.57
  10  -1  -6   15.21    1.29
  10   1  -5  145.82    3.77
  10   1  -5  155.51    4.37
  10   1  -5  139.53    4.03
  10  -1  -5  146.98    4.16
  10   1  -5  152.93    4.21
 -10   1   5  160.06    6.88
  10  -1  -5  156.35    4.17
  10   1  -4   65.51    2.79
  10  -1  -4   63.17    2.94
  10   1  -4   62.33    2.79
  10  -1  -4   59.24    2.49
  10   1  -4   56.76    2.81
  10  -1  -4   59.22    2.66
  10   1  -4   61.28    2.72
 -10   1   4   65.69    4.65
 -10  -1   4   57.66    4.62
  10  -1  -4   63.50    2.82
  10   1  -3   37.83    2.23
  10  -1  -3   31.42    2.12
  10   1  -3   34.15    2.07
  10  -1  -3   34.78    2.11
  10   1  -3   36.25    2.41
  10  -1  -3   31.38    1.94
  10   1  -3   34.54    2.05
 -10   1   3   38.45    3.79
 -10  -1   3   32.90    3.63
  10  -1  -3   34.07    2.21
  10  -1  -2  106.92    3.64
  10   1  -2  111.25    3.48
  10  -1  -2  110.20    3.84
 -10  -1   2  113.91    6.47
  10   1  -2  115.42    4.06
  10  -1  -1   45.08    2.33
  10  -1  -1   41.68    2.58
  10   1  -1   40.98    2.82
 -10   1   1   47.90    4.07
  10  -1  -1   48.59    2.78
  10   1  -1   54.07    2.95
  10  -1   0    1.64    0.97
  10   1   0    1.81    1.00
  10  -1   0    1.30    1.06
  10   1   0    1.82    1.32
 -10   1   0    1.68    1.58
 -10  -1   0    2.23    1.69
  10   1   1  229.54    6.53
 -10   1  -1  231.08    8.54
 -10  -1  -1  243.80    9.12
  10  -1   1  235.25    6.34
  10   1   1  248.50    6.60
  10   1   2   16.21    2.21
 -10   1  -2   16.29    2.64
 -10  -1  -2   14.21    2.69
  10  -1   2   17.88    2.01
  10   1   2   19.62    2.05
  10   1   3  184.34    6.17
 -10   1  -3  183.80    7.43
 -10  -1  -3  181.48    8.03
  10  -1   3  190.06    5.84
  10   1   3  202.11    6.13
  10   1   4    4.89    1.34
  10   1   4    4.01    1.76
 -10   1  -4    4.38    1.77
 -10  -1  -4    5.41    2.11
  10  -1   4    4.81    1.42
  10   1   5  273.85    6.98
 -10   1  -5  260.24    8.20
 -10  -1  -5  261.62    8.96
  10   1   5  264.43    7.29
  10  -1   5  275.90    7.00
  10   1   6  164.61    5.33
 -10  -1  -6  146.37    4.97
  10   1   6  159.66    5.65
 -10   1  -6  155.30    6.16
 -10  -1  -6  168.21    7.00
  10  -1   6  154.15    5.23
 -10  -1  -7  211.92    5.90
  10   1   7  216.71    6.44
  10  -1   8   57.31    2.90
  10   1   8   56.32    3.01
 -10  -1  -8   48.98    2.89
  10   1   8   49.32    3.10
 -10   1  -8   49.42    3.20
 -10  -1  -8   50.16    3.43
  10  -1   9  111.74    3.66
  10   1   9  116.81    3.93
 -10  -1  -9  105.57    3.98
  10   1   9  103.86    4.08
 -10   1  -9   96.64    3.85
 -10  -1  -9  100.04    4.22
  10   1  10   67.79    2.58
 -10   1 -10   76.27    3.43
 -10  -1 -10   71.90    3.10
 -10  -1 -10   68.67    2.95
 -10   1 -11   74.14    3.08
  10   1  11   76.78    2.88
 -10   1 -12    0.42    0.68
 -10  -1 -12    0.43    0.52
  10  -2 -12    4.65    0.63
  10  -2 -12    4.39    0.66
  10   2 -12    4.99    0.72
  10  -2 -11   18.21    1.25
  10  -2 -11   18.56    1.31
  10   2 -11   18.18    1.35
  10  -2 -10  146.31    3.60
  10   2 -10  151.49    3.86
  10  -2  -9   42.04    2.22
  10  -2  -9   40.32    2.15
  10   2  -9   42.10    2.23
  10   2  -9   38.23    1.75
  10  -2  -8   34.04    2.11
  10   2  -8   34.89    2.11
  10  -2  -8   33.45    2.05
  10  -2  -7    0.40    0.80
  10   2  -7    1.03    0.67
  10   2  -7    1.01    0.83
  10  -2  -6   15.32    1.67
  10   2  -6   12.54    1.42
  10   2  -6    9.91    1.29
  10  -2  -6   10.91    1.34
  10   2  -6   16.97    1.56
 -10   2   6   14.68    2.18
  10  -2  -6   11.88    1.13
  10   2  -5   48.99    2.18
  10  -2  -5   55.19    2.81
  10   2  -5   55.35    2.62
  10   2  -5   48.77    2.55
  10  -2  -5   47.21    2.44
  10   2  -5   52.90    2.58
 -10   2   5   56.13    4.11
  10  -2  -5   51.83    2.42
  10   2  -4  121.22    3.73
  10   2  -4  129.57    3.93
  10  -2  -4  122.87    3.79
  10   2  -4  128.93    3.97
 -10  -2   4  116.05    6.36
  10  -2  -4  128.87    3.99
  10   2  -3  138.79    4.24
  10  -2  -3  128.19    4.17
  10   2  -3  140.25    3.98
  10   2  -3  137.65    4.60
  10  -2  -3  135.93    3.87
  10   2  -3  145.48    4.06
 -10  -2   3  134.11    7.10
  10  -2  -3  133.53    4.38
  10   2  -2  117.36    4.00
  10  -2  -2  104.01    3.71
  10   2  -2  115.13    3.50
  10  -2  -2  112.22    3.57
  10   2  -2  113.86    4.38
  10  -2  -2  109.93    3.39
 -10  -2   2  119.83    6.88
  10  -2  -2  108.70    4.02
  10  -2  -1    4.68    1.05
  10  -2  -1    6.68    1.26
  10   2  -1    5.12    1.38
 -10   2   1    6.61    2.20
  10  -2  -1    4.63    1.23
  10   2   0   67.32    3.31
  10  -2   0   63.00    2.72
  10  -2   0   61.56    3.07
  10   2   0   64.48    3.60
 -10   2   0   71.48    4.82
 -10  -2   0   66.43    5.39
  10  -2   0   62.16    3.27
  10   2   1  104.37    4.24
  10   2   1  108.08    4.64
 -10   2  -1  104.14    5.59
 -10  -2  -1  105.79    6.43
  10  -2   1  102.79    4.26
  10   2   2  372.94    8.08
  10   2   2  364.72    8.58
 -10   2  -2  381.27   10.32
 -10  -2  -2  391.95   12.01
  10  -2   2  373.60    8.12
  10   2   3  290.16    7.21
  10   2   3  299.26    7.74
 -10   2  -3  307.70    9.13
 -10  -2  -3  322.51   10.81
  10  -2   3  317.58    7.50
  10   2   4   43.00    2.88
  10   2   4   27.34    2.66
 -10   2  -4   25.78    2.84
 -10  -2  -4   43.44    4.14
  10  -2   4   27.09    2.32
  10   2   5   18.69    1.98
  10   2   5   16.97    2.14
 -10   2  -5   16.45    2.33
 -10  -2  -5   17.52    2.78
  10  -2   5   17.61    1.91
  10   2   6   51.09    3.22
 -10   2  -6   42.51    3.19
 -10  -2  -6   50.45    4.12
  10  -2   7    2.77    1.01
  10   2   7    1.51    1.00
  10   2   7    2.14    1.36
 -10   2  -7    2.45    1.14
 -10  -2  -7    2.20    1.51
  10   2   8   66.60    3.22
 -10   2  -8   60.02    3.25
 -10  -2  -8   62.63    3.83
  10  -2   8   72.37    3.12
  10  -2   9    3.75    0.82
  10   2   9    4.80    0.99
 -10   2  -9    4.26    1.21
  10   2   9    3.57    1.17
 -10  -2  -9    6.36    1.40
 -10   2  -9    3.25    0.95
  10   2  10   10.84    1.08
 -10   2 -10   14.20    1.60
  10   2  10   15.03    1.49
 -10  -2 -10   11.56    1.35
  10   2  11    0.26    0.52
 -10   2 -11    0.05    0.76
 -10   2 -12    0.51    0.60
  10  -3 -12   25.22    0.99
  10  -3 -12   24.77    1.07
  10   3 -12   23.75    1.11
  10   3 -11    1.12    0.35
  10  -3 -11    1.76    0.56
  10  -3 -11    1.56    0.57
  10   3 -11    1.76    0.61
  10  -3 -10   51.43    2.04
  10  -3 -10   50.39    2.03
  10   3 -10   53.03    2.14
  10   3 -10   45.11    1.62
  10  -3  -9   19.92    1.54
  10  -3  -9   19.70    1.48
  10   3  -9   20.56    1.53
  10   3  -8    1.95    0.74
  10  -3  -8    2.60    0.93
  10  -3  -8    2.62    0.87
  10  -3  -7   27.81    2.01
  10   3  -7   26.04    1.71
  10   3  -7   29.43    1.91
  10  -3  -6   60.81    2.89
  10  -3  -6   58.12    2.64
  10   3  -6   57.79    2.58
 -10   3   6   64.91    3.92
  10  -3  -6   55.12    2.23
  10  -3  -5    0.22    0.84
  10  -3  -5    1.08    0.66
  10   3  -5    0.58    0.90
  10  -3  -5    0.85    0.76
  10   3  -5    1.25    0.72
 -10   3   5    2.35    1.37
  10   3  -4   25.98    1.72
  10   3  -4   26.50    2.13
  10  -3  -4   26.37    1.84
  10   3  -4   28.84    1.88
 -10   3   4   31.81    3.21
 -10  -3   4   23.10    3.00
  10  -3  -4   24.69    1.85
  10  -3  -3  134.88    4.35
  10   3  -3  152.03    4.23
  10   3  -3  133.02    4.60
  10  -3  -3  136.93    3.89
  10   3  -3  146.62    3.93
 -10   3   3  165.37    6.84
 -10  -3   3  128.61    6.88
  10  -3  -2    0.08    0.82
  10  -3  -2    0.07    0.82
  10   3  -2    0.75    0.79
  10   3  -2    4.16    1.38
  10  -3  -2   -0.05    0.67
 -10   3   2    0.21    1.41
 -10  -3   2   -0.28    1.61
  10  -3  -1  255.57    5.65
  10   3  -1  274.94    6.80
 -10   3   1  287.40    9.06
  10  -3  -1  254.47    6.25
  10  -3   0   74.82    3.00
  10   3   0   86.27    3.80
  10  -3   0   73.18    2.99
  10   3   0   75.62    3.86
 -10   3   0   79.38    4.86
 -10  -3   0   78.94    5.79
  10  -3   0   75.94    3.58
  10   3   1   47.77    2.95
  10  -3   1   40.53    2.17
  10   3   1   38.91    2.93
 -10   3  -1   38.87    3.47
 -10  -3  -1   38.30    4.20
  10  -3   1   41.25    2.77
  10   3   2  113.59    4.49
  10   3   2  100.88    4.44
 -10   3  -2  100.68    5.19
 -10  -3  -2  101.11    6.42
  10  -3   2   98.12    4.20
  10   3   3  102.31    4.37
  10   3   3   84.76    4.06
 -10   3  -3   87.43    4.75
 -10  -3  -3   93.70    5.93
  10  -3   3   93.66    4.03
  10   3   4   29.48    2.52
  10   3   4   23.97    2.38
 -10   3  -4   24.98    2.59
 -10  -3  -4   25.10    3.40
  10  -3   4   29.25    2.37
  10   3   5   14.25    1.89
  10   3   5   11.43    1.74
 -10   3  -5   10.84    1.79
 -10  -3  -5   12.66    2.46
  10  -3   5   15.91    1.78
  10   3   6  290.05    6.95
 -10  -3  -6  264.28    8.80
  10   3   7    4.00    1.19
  10   3   7    3.19    1.22
 -10   3  -7    2.21    1.05
 -10  -3  -7    2.30    1.49
  10  -3   7    3.50    0.99
  10   3   8   46.02    2.54
  10   3   8   45.42    2.47
 -10   3  -8   42.73    2.46
  10  -3   8   49.44    2.41
  10   3   9   91.50    3.12
 -10   3  -9   86.48    3.53
  10   3   9   88.56    2.94
 -10  -3  -9   85.19    3.78
 -10  -3 -10    2.55    0.68
  10   3  10    1.59    0.55
 -10   3 -10    3.14    1.08
 -10  -3 -10    2.17    0.80
 -10   3 -11  106.22    3.13
 -10   3 -12   21.97    1.22
  10  -4 -11   17.36    0.85
  10  -4 -11   17.90    0.93
  10  -4 -10    1.53    0.52
  10  -4 -10    1.59    0.57
  10   4 -10    1.78    0.57
  10   4  -9    1.22    0.55
  10  -4  -9    1.83    0.65
  10  -4  -9    2.06    0.66
  10  -4  -8   49.02    2.22
  10  -4  -8   47.82    2.09
  10   4  -8   49.19    2.15
  10   4  -8   48.08    2.03
  10  -4  -7   77.14    2.94
  10   4  -7   75.70    2.69
  10   4  -7   76.12    2.75
  10  -4  -6   84.01    3.26
  10   4  -6   75.51    2.96
  10  -4  -6   79.85    2.91
  10   4  -6   84.92    2.89
  10  -4  -6   80.79    2.50
  10  -4  -5  106.08    3.66
  10   4  -5  108.81    3.71
  10  -4  -5  105.97    3.32
  10   4  -5  113.53    3.34
  10  -4  -5  104.25    3.21
  10  -4  -4    2.18    1.01
  10  -4  -4    1.78    0.76
  10   4  -4    1.75    0.60
  10   4  -4    3.70    1.26
  10   4  -4    3.04    0.77
  10  -4  -4    2.92    0.86
 -10   4   4    3.61    1.51
 -10  -4   4    1.96    1.44
  10   4  -3   39.79    2.04
  10   4  -3   44.86    2.73
  10  -4  -3   41.82    2.13
 -10  -4   3   41.01    3.93
  10  -4  -2   12.98    1.51
  10   4  -2   14.06    1.43
  10   4  -2   13.03    1.81
  10  -4  -2   11.44    1.18
 -10   4   2   14.84    2.33
 -10  -4   2   12.43    2.61
  10  -4  -2   12.32    1.47
  10  -4  -1   81.73    3.24
  10   4  -1   91.37    3.57
  10   4  -1   94.07    4.01
 -10   4   1   88.44    4.72
 -10  -4   1   85.69    5.86
  10  -4  -1   83.48    3.58
  10  -4   0   70.64    2.93
  10   4   0   86.57    3.60
  10   4   0   80.26    3.73
 -10   4   0   75.54    4.32
 -10  -4   0   71.88    5.51
  10  -4   0   74.66    3.47
  10  -4   1    2.99    0.86
  10  -4   1    2.05    1.01
  10   4   1    3.06    1.08
  10   4   1    2.20    1.22
 -10   4  -1    1.77    1.35
 -10  -4  -1    4.65    2.21
  10  -4   2    3.28    1.14
  10   4   2    4.32    1.17
  10   4   2    2.13    1.28
 -10   4  -2    3.42    1.47
 -10  -4  -2    2.37    2.15
  10  -4   3    3.68    1.10
  10   4   3    3.09    1.17
  10   4   3    2.88    1.21
 -10   4  -3    2.57    1.25
 -10  -4  -3    4.20    2.08
  10   4   4   61.38    3.28
 -10   4  -4   52.42    3.32
 -10  -4  -4   54.11    4.64
  10  -4   4   58.81    2.98
  10   4   5   46.86    2.81
  10   4   5   41.21    2.57
 -10   4  -5   40.59    2.76
 -10  -4  -5   44.41    3.89
  10  -4   5   44.87    2.59
  10   4   6   33.45    2.27
  10   4   6   33.55    2.21
 -10   4  -6   28.44    2.21
 -10  -4  -6   37.02    3.39
  10  -4   6   31.49    2.11
  10   4   7   22.35    1.78
  10   4   7   21.87    1.68
 -10   4  -7   19.57    1.72
 -10  -4  -7   22.88    2.54
  10  -4   7   24.49    1.72
  10   4   8    7.06    0.93
 -10   4  -8    7.24    0.98
  10  -4   8    7.80    0.90
 -10   4  -9   33.79    2.01
 -10  -4  -9   32.00    1.92
 -10  -4  -9   31.54    2.16
 -10   4 -10   24.57    1.54
 -10   4 -11   44.37    1.61
  10  -5  -9    2.80    0.53
  10  -5  -9    2.20    0.51
  10   5  -9    2.15    0.47
  10  -5  -8   60.07    2.02
  10  -5  -8   54.84    1.87
  10   5  -8   56.07    1.90
  10  -5  -7    6.81    0.95
  10   5  -7    5.92    0.90
  10  -5  -6   24.72    1.65
  10  -5  -6   21.82    1.44
 -10   5   6   24.53    1.85
  10   5  -6   22.56    1.54
  10  -5  -6   18.07    1.05
  10  -5  -5   26.37    1.79
  10   5  -5   24.20    1.76
  10  -5  -5   23.62    1.52
 -10   5   5   27.67    2.32
  10  -5  -5   23.97    1.43
  10   5  -5   25.30    1.69
  10  -5  -4   51.95    2.46
  10   5  -4   46.30    2.50
  10  -5  -4   46.28    2.08
  10  -5  -4   50.33    2.24
  10  -5  -3    4.44    1.05
 -10  -5   3    3.37    1.45
  10   5  -3    4.13    1.19
  10  -5  -3    2.78    0.71
  10  -5  -3    3.18    0.90
 -10  -5   3    3.75    1.67
  10  -5  -2  107.94    3.54
  10   5  -2  115.19    4.07
 -10   5   2  121.91    4.92
 -10  -5   2  115.24    6.26
  10  -5  -2  110.11    3.68
  10  -5  -1    8.87    1.21
  10   5  -1    7.50    1.09
  10   5  -1    9.64    1.50
 -10   5   1    8.89    1.72
 -10  -5   1    8.80    2.40
  10  -5  -1    7.19    1.23
  10  -5   0   23.02    1.66
  10   5   0   23.50    2.01
 -10   5   0   24.22    2.37
  10  -5   0   23.09    1.89
  10  -5   1   12.74    1.22
  10   5   1   13.49    1.48
  10   5   1   13.23    1.68
 -10   5  -1   12.47    1.87
 -10  -5  -1   13.15    2.66
  10  -5   1   13.99    1.57
  10  -5   2   36.46    1.74
  10   5   2   43.49    2.49
  10   5   2   39.31    2.42
 -10   5  -2   39.27    2.82
 -10  -5  -2   43.29    4.11
  10  -5   2   44.52    2.50
  10   5   3    9.67    1.35
 -10   5  -3    8.23    1.46
 -10  -5  -3    7.74    2.26
  10  -5   3    8.39    1.24
  10   5   4   71.95    3.11
  10   5   4   73.00    2.97
 -10   5  -4   72.54    3.36
 -10  -5  -4   79.07    5.10
  10  -5   4   81.78    3.20
  10   5   5   67.31    2.98
  10   5   5   63.88    2.58
 -10  -5  -5   68.60    4.46
  10   5   6   25.65    1.50
 -10  -5  -6   29.64    2.53
 -10   5  -6   25.72    1.79
 -10  -5  -6   30.31    2.90
  10  -5   6   31.03    1.75
 -10  -5  -7   99.24    3.92
 -10   5  -7   82.98    2.57
 -10  -5  -7  101.47    4.41
  10  -5   7   83.09    2.37
 -10   5  -8  126.25    3.36
 -10   5  -9    0.48    0.53
  10   6  -7    0.62    0.39
  10  -6  -7    1.11    0.44
  10   6  -6    0.13    0.43
  10  -6  -6   -0.08    0.50
  10  -6  -6    0.02    0.37
  10  -6  -5   46.06    1.86
 -10   6   5   44.54    2.08
  10  -6  -5   40.59    1.43
  10   6  -5   44.41    1.74
  10  -6  -4   35.34    1.75
 -10   6   4   40.82    2.35
  10  -6  -4   36.61    1.61
  10  -6  -3   77.00    2.54
  10  -6  -3   76.21    2.48
  10   6  -3   76.72    2.41
 -10  -6   2    1.36    1.10
  10  -6  -2    2.68    0.76
  10   6  -2    3.68    0.97
 -10   6   2    3.35    1.11
 -10  -6   2    2.34    1.35
  10   6  -2    2.91    0.71
  10  -6  -1   20.40    1.39
  10   6  -1   18.20    1.50
 -10  -6   1   24.33    2.54
 -10   6   1   19.20    1.92
 -10  -6   1   22.00    2.80
  10  -6  -1   20.00    1.54
  10   6  -1   14.75    1.13
  10   6   0    1.67    0.55
  10  -6   0    2.59    0.71
 -10  -6   0    3.66    1.52
  10  -6   0    2.61    0.84
  10   6   0    3.31    0.92
 -10   6   0    2.82    1.08
 -10  -6   0    2.07    1.58
  10  -6   1   93.68    2.47
  10   6   1  110.04    3.28
 -10  -6  -1  137.57    5.74
 -10   6  -1  123.09    4.09
 -10  -6  -1  142.05    6.37
  10  -6   1  124.54    3.56
  10   6   2   12.44    1.25
 -10  -6  -2   10.41    1.95
 -10   6  -2   10.71    1.43
 -10  -6  -2   13.95    2.44
  10  -6   2   13.45    1.31
  10   6   3  153.68    3.38
 -10  -6  -3  193.94    6.32
 -10   6  -3  166.16    4.41
 -10  -6  -3  192.92    6.98
  10  -6   3  181.64    4.09
 -10  -6  -4   19.04    2.15
 -10   6  -4   14.80    1.37
 -10  -6  -4   18.87    2.41
 -10  -6  -5    9.22    1.52
 -10   6  -5    7.74    0.96
 -10  -6  -5   10.08    1.80
  10  -6   5   10.04    0.91
 -10  -6  -6    0.04    0.77
 -10  -6  -6    0.69    0.98
 -10   6  -7   11.08    0.92
 -10  -6  -7   14.75    1.27
 -10  -6  -7   13.32    1.36
  10  -7  -3   40.37    1.31
 -10   7   2   35.25    1.72
  10  -7  -2   35.16    1.35
 -10   7   1    5.61    0.91
  10  -7  -1    5.25    0.67
 -10   7   0  108.32    3.08
  10  -7   0  113.36    2.61
 -10  -7  -1   25.31    1.88
 -10   7  -1   23.79    1.47
 -10  -7  -1   26.46    2.14
  10  -7   1   23.20    1.24
 -10  -7  -2   44.56    2.44
 -10   7  -2   41.56    1.79
  10  -7   2   47.65    1.65
 -10  -7  -3    1.54    0.78
 -10   7  -3    1.07    0.48
 -10  -7  -3    1.47    0.92
 -10  -7  -4   27.22    1.84
  11   0 -11    3.90    0.59
  11   0 -10    0.26    0.51
  11   0 -10   -0.01    0.49
  11   0  -9    6.33    0.90
  11   0  -8    0.12    0.64
  11   0  -8    0.16    0.63
  11   0  -7  323.85    5.29
  11   0  -6    0.29    0.73
  11   0  -6    0.61    0.76
  11   0  -5   72.43    2.39
  11   0  -5   81.97    2.88
  11   0  -5   75.10    2.44
  11   0  -5   89.21    2.85
 -11   0   5   85.67    4.59
  11   0  -4    0.37    0.68
  11   0  -4    0.52    0.64
  11   0  -4    1.67    0.78
  11   0  -4    0.81    0.65
 -11   0   4   -0.21    1.42
  11   0  -3   15.02    1.31
 -11   0   3   18.31    2.69
  11   0  -3   16.44    1.50
  11   0  -2    0.45    0.57
  11   0  -2    1.00    0.81
  11   0  -2    0.11    0.86
 -11   0   2    1.67    1.60
  11   0  -1  326.10    6.48
 -11   0   1  348.35   10.45
  11   0  -1  331.95    6.75
  11   0   0    0.72    0.91
 -11   0   0    1.48    1.66
  11   0   1   57.68    3.20
 -11   0  -1   64.64    4.55
  11   0   1   70.57    3.37
  11   0   2    1.73    1.00
  11   0   2    0.12    1.14
 -11   0  -2    0.52    1.51
  11   0   3   21.33    2.20
 -11   0  -3   20.39    2.91
  11   0   3   21.59    2.04
  11   0   4    0.66    0.93
  11   0   4    0.96    1.38
 -11   0  -4   -0.04    1.48
  11   0   5  484.75    8.27
  11   0   5  456.16    8.54
 -11   0  -5  471.71   10.58
  11   0   6    0.68    0.86
  11   0   6   -0.65    1.43
 -11   0  -6    0.15    0.84
 -11   0  -6    0.33    1.43
 -11   0  -7   36.82    2.20
  11   0   7   41.78    2.69
  11   0   8    0.31    0.68
  11   0   8    1.54    1.20
 -11   0  -8   -0.02    0.71
 -11   0  -8   -0.20    0.91
  11   0   9   14.64    1.15
  11   0   9   16.69    1.62
 -11   0  -9   19.24    1.53
  11   0  10    0.24    0.73
  11   0  11   47.56    1.70
  11  -1 -11   29.88    1.23
  11  -1 -11   27.01    1.16
  11   1 -11   26.12    1.14
  11  -1 -10   44.45    1.72
  11  -1 -10   41.78    1.64
  11   1  -9    0.67    0.34
  11  -1  -9    1.94    0.69
  11  -1  -8   31.54    1.76
  11  -1  -8   30.09    1.64
  11   1  -8   29.85    1.67
  11  -1  -7   24.00    1.65
  11   1  -7   24.42    1.62
  11  -1  -7   21.51    1.47
  11   1  -7   21.66    1.51
  11   1  -6   67.80    2.57
  11  -1  -6   64.85    2.43
  11   1  -6   66.34    2.47
  11  -1  -5   50.45    2.32
  11   1  -5   53.87    2.30
  11   1  -5   46.96    2.18
  11  -1  -5   49.30    2.13
  11   1  -5   52.48    2.25
 -11   1   5   52.61    3.61
  11  -1  -5   47.80    2.02
  11   1  -4   64.41    2.50
  11  -1  -4   69.95    2.71
  11   1  -4   72.38    2.62
  11   1  -4   66.02    2.70
  11  -1  -4   69.67    2.44
  11   1  -4   71.32    2.51
 -11   1   4   73.96    4.50
 -11  -1   4   71.16    4.55
  11  -1  -4   72.11    2.74
  11   1  -3  277.46    5.42
  11  -1  -3  268.88    5.10
  11   1  -3  289.57    5.00
  11  -1  -3  263.07    4.84
  11   1  -3  259.08    5.54
 -11   1   3  297.81    9.05
 -11  -1   3  284.72    9.34
  11  -1  -3  287.46    5.64
  11   1  -2   44.03    2.36
  11  -1  -2   42.04    2.04
  11  -1  -2   37.68    2.10
 -11  -1   2   43.58    3.98
  11  -1  -1   95.43    3.40
  11   1  -1   90.17    3.64
  11  -1  -1   94.01    3.63
  11   1   0   66.41    3.11
  11  -1   0   59.78    2.90
  11   1   0   59.66    3.15
 -11   1   0   61.91    4.38
 -11  -1   0   68.91    4.89
  11  -1   0   65.05    3.10
  11   1   1  165.04    4.93
  11  -1   1  162.50    4.80
  11   1   1  167.94    5.20
 -11   1  -1  165.92    6.87
 -11  -1  -1  171.06    7.43
  11  -1   1  165.92    5.00
  11   1   2  136.01    4.52
  11   1   2  127.64    4.77
 -11   1  -2  126.16    5.94
 -11  -1  -2  130.97    6.45
  11  -1   2  135.32    4.56
  11   1   3   28.02    2.28
  11  -1   3   25.75    2.29
  11   1   3   30.63    2.61
 -11   1  -3   29.22    3.14
 -11  -1  -3   30.49    3.47
  11  -1   3   29.45    2.32
  11   1   4  236.76    5.91
  11   1   4  220.65    6.00
 -11   1  -4  220.02    7.34
 -11  -1  -4  221.30    8.02
  11  -1   4  237.93    6.04
  11   1   5   79.46    3.46
  11  -1   5   52.74    3.19
  11   1   5   62.83    3.31
 -11   1  -5   61.13    3.93
 -11  -1  -5   66.40    4.29
  11  -1   5   71.69    3.29
  11  -1   6  189.26    5.03
  11   1   6  197.39    5.11
 -11   1  -6  157.08    4.76
  11  -1   6  173.03    5.10
  11   1   6  167.99    5.04
 -11   1  -6  162.91    5.74
 -11  -1  -6  176.36    6.42
  11  -1   7   29.58    1.93
 -11   1  -7   24.64    1.98
  11  -1   7   28.09    2.29
  11   1   7   29.09    2.22
 -11  -1  -7   27.06    2.51
  11  -1   8   61.79    2.51
  11   1   8   61.06    2.62
 -11   1  -8   45.89    2.41
  11  -1   8   50.05    2.73
  11   1   8   53.63    2.70
 -11   1  -8   48.42    2.64
 -11  -1  -8   51.20    2.94
  11  -1   9  135.10    2.97
  11   1   9  142.24    3.34
 -11   1  -9  151.77    3.92
  11  -1   9  189.80    4.66
  11   1   9  186.46    4.41
 -11   1  -9  148.35    3.59
 -11  -1  -9  156.57    4.13
  11  -1  10   64.32    2.48
  11   1  10   58.30    2.14
  11  -1  11   49.71    1.78
  11  -2 -11   81.16    1.74
  11  -2 -10   52.19    1.74
  11  -2 -10   41.95    1.52
  11  -2  -9  122.20    2.93
  11   2  -9  114.06    2.70
  11  -2  -8   20.00    1.41
  11  -2  -8   19.54    1.30
  11   2  -8   20.20    1.31
  11   2  -8   19.70    1.20
  11  -2  -7    0.32    0.62
  11  -2  -7   -0.01    0.58
  11   2  -7   -0.08    0.55
  11  -2  -6    1.21    0.73
  11   2  -6    0.45    0.59
  11  -2  -6    3.29    0.73
  11   2  -6    2.19    0.65
  11  -2  -5   24.40    1.69
  11   2  -5   21.75    1.64
  11  -2  -5   20.84    1.42
  11   2  -5   26.33    1.52
 -11   2   5   25.11    2.47
  11  -2  -5   22.15    1.38
  11  -2  -4   -0.02    0.68
  11  -2  -4    0.42    0.56
  11   2  -4    0.49    0.52
  11  -2  -4    0.41    0.51
 -11   2   4    0.39    1.12
 -11  -2   4    0.54    1.13
  11   2  -3  138.54    3.71
  11  -2  -3  124.39    3.52
  11   2  -3  130.60    4.08
 -11  -2   3  131.92    6.32
  11  -2  -3  127.18    3.78
  11   2  -2    4.83    0.99
  11  -2  -2    5.14    0.91
  11   2  -2    4.57    1.27
 -11  -2   2    6.28    2.02
  11  -2  -1    3.39    0.77
  11  -2  -1    2.92    0.87
  11   2  -1    3.24    1.19
 -11   2   1    4.21    1.84
  11  -2  -1    3.36    1.01
  11   2   0   76.45    3.30
  11  -2   0   68.22    2.84
  11   2   0   69.33    3.38
 -11   2   0   73.56    4.62
 -11  -2   0   76.90    5.18
  11  -2   0   73.26    3.25
  11   2   1  232.39    5.75
  11  -2   1  199.77    4.91
  11   2   1  204.08    5.65
 -11   2  -1  210.13    7.39
 -11  -2  -1  220.82    8.47
  11  -2   1  222.47    5.63
  11   2   2  127.42    4.39
  11  -2   2  111.15    3.87
  11   2   2  113.28    4.41
 -11   2  -2  118.74    5.51
 -11  -2  -2  117.43    6.21
  11  -2   2  112.21    4.25
  11   2   3  256.43    6.15
  11  -2   3  215.10    5.43
  11   2   3  228.59    6.01
 -11   2  -3  228.01    7.41
 -11  -2  -3  234.50    8.58
  11  -2   3  245.28    5.95
  11   2   4    5.33    1.23
  11   2   4    4.13    1.35
 -11   2  -4    5.66    1.65
 -11  -2  -4    5.05    1.97
  11  -2   4    5.18    1.17
  11   2   5   20.41    1.87
  11   2   5   19.03    2.00
 -11   2  -5   15.95    2.00
 -11  -2  -5   19.42    2.62
  11  -2   5   18.01    1.69
  11   2   6    1.08    0.89
  11   2   6    0.69    1.07
 -11   2  -6    1.42    1.06
 -11  -2  -6    0.86    1.18
  11   2   7    3.27    0.93
  11  -2   7    2.59    0.79
  11   2   7    2.79    1.03
 -11   2  -7    1.79    0.94
 -11  -2  -7    3.58    1.29
  11  -2   8    0.77    0.51
  11   2   8    1.28    0.69
 -11   2  -8    0.87    0.73
 -11  -2  -8    0.98    0.97
  11   2   9    2.83    0.60
  11   2   9    4.74    0.84
 -11  -2  -9    3.89    0.89
  11  -2  10    0.27    0.70
  11  -3 -10    1.21    0.37
  11  -3 -10    1.10    0.34
  11   3  -9   12.39    0.85
  11   3  -9   13.74    0.83
  11   3  -8    1.62    0.55
  11  -3  -8    0.95    0.58
  11  -3  -8    0.94    0.52
  11   3  -8    0.83    0.49
  11  -3  -7   75.73    2.52
  11  -3  -7   68.90    2.18
  11   3  -7   73.61    2.35
  11  -3  -6    3.25    0.82
  11   3  -6    2.27    0.73
  11   3  -6    2.17    0.62
  11  -3  -6    2.40    0.69
  11  -3  -5   52.37    1.99
  11   3  -5   51.45    1.85
  11  -3  -4   46.44    2.20
  11   3  -4   31.27    1.43
  11   3  -4   48.28    2.48
  11  -3  -4   43.99    1.80
 -11   3   4   56.71    3.67
 -11  -3   4   39.18    3.09
  11  -3  -4   50.76    2.15
  11  -3  -3   13.44    1.29
  11   3  -3   10.98    1.10
  11   3  -3    8.95    1.40
 -11   3   3   12.22    2.06
 -11  -3   3   11.13    2.17
  11  -3  -3   10.68    1.22
  11  -3  -2  238.25    4.62
  11   3  -2  246.47    4.96
  11   3  -2  243.69    5.54
 -11  -3   2  247.56    8.57
  11  -3  -2  249.02    5.29
  11  -3  -1    2.86    0.76
  11  -3  -1    0.61    0.79
  11   3  -1    1.19    0.81
  11   3  -1    1.28    1.18
 -11   3   1    1.22    1.40
 -11  -3   1    1.47    1.72
  11   3   0   94.27    3.55
  11  -3   0   80.91    2.47
  11   3   0   84.55    3.63
 -11   3   0   82.76    4.54
 -11  -3   0   90.43    5.54
  11  -3   0   86.32    3.42
  11   3   1  264.26    6.02
  11  -3   1  236.43    4.64
  11   3   1  251.65    6.11
 -11   3  -1  237.61    7.38
 -11  -3  -1  262.96    8.98
  11  -3   1  235.01    5.70
  11   3   2    9.89    1.41
  11  -3   2    7.07    1.14
  11   3   2    6.80    1.54
 -11   3  -2    6.93    1.78
 -11  -3  -2    7.29    2.15
  11  -3   2    8.45    1.31
  11   3   3   38.96    2.41
  11  -3   3   31.16    1.99
  11   3   3   31.87    2.32
 -11   3  -3   31.56    2.78
 -11  -3  -3   32.19    3.31
  11  -3   3   32.16    2.22
  11   3   4    6.69    1.30
  11  -3   4    5.00    1.18
  11   3   4    5.43    1.31
 -11   3  -4    6.28    1.53
 -11  -3  -4    6.21    1.92
  11  -3   4    5.37    1.09
  11   3   5  136.05    4.19
  11   3   5  105.00    3.64
 -11   3  -5  102.61    4.17
 -11  -3  -5  114.32    5.26
  11  -3   5  124.59    3.88
  11   3   6    5.62    1.10
  11   3   6    4.49    1.08
 -11  -3  -6    4.58    1.55
  11   3   7  121.87    3.47
  11   3   7  110.88    3.26
 -11   3  -7  106.29    3.52
 -11  -3  -7  115.33    4.50
  11  -3   7  120.33    3.20
  11  -3   8   70.63    1.96
  11   3   8  100.88    2.84
 -11   3  -8   84.15    2.91
  11   3   8   87.32    2.51
 -11   3  -8   78.59    2.42
 -11  -3  -8   95.32    3.60
 -11   3  -9    6.54    0.89
  11  -3   9    6.54    0.99
  11  -3  10  112.30    2.51
  11  -4  -9    0.85    0.32
  11  -4  -8   15.30    0.84
  11   4  -8   15.69    0.93
  11  -4  -7   26.28    1.38
  11  -4  -7   23.16    1.11
  11   4  -7   25.69    1.32
  11  -4  -6   98.61    2.70
  11   4  -6   94.83    2.71
  11  -4  -5   33.12    1.71
  11   4  -5   31.96    1.76
  11  -4  -5   27.05    1.30
 -11   4   5   33.79    2.22
  11  -4  -5   27.16    1.30
  11  -4  -4   70.20    2.45
  11   4  -4   70.80    2.70
  11  -4  -4   56.97    1.77
 -11   4   4   88.63    3.91
  11  -4  -4   77.08    2.41
  11  -4  -3    6.96    0.95
  11   4  -3    6.35    1.18
 -11   4   3    9.25    1.65
 -11  -4   3    6.75    1.68
  11  -4  -2   48.58    2.02
  11   4  -2   45.24    1.92
  11   4  -2   49.40    2.57
 -11   4   2   52.05    3.25
 -11  -4   2   55.08    3.95
  11  -4  -2   50.55    2.32
  11  -4  -1   27.96    1.51
  11   4  -1   32.14    1.75
  11   4  -1   26.23    2.04
 -11   4   1   31.14    2.62
 -11  -4   1   32.04    3.23
  11  -4  -1   27.42    1.83
  11  -4   0    9.62    0.87
  11   4   0   11.08    1.49
 -11   4   0   10.65    1.81
  11  -4   0   10.83    1.30
  11  -4   1    0.80    0.76
  11   4   1    0.88    0.73
  11   4   1    0.80    1.00
 -11   4  -1    1.69    1.18
 -11  -4  -1    1.30    1.59
  11   4   2   10.92    1.30
  11   4   2    9.67    1.36
 -11   4  -2    8.52    1.59
 -11  -4  -2    9.69    2.14
  11  -4   2    9.74    1.27
  11  -4   3    1.87    0.79
  11   4   3    1.28    0.80
  11  -4   3    0.43    0.57
  11   4   3    0.59    0.84
 -11   4  -3    0.75    1.03
 -11  -4  -3    0.69    1.42
  11   4   4    8.79    1.24
  11  -4   4    9.20    1.00
  11   4   4   10.75    1.31
 -11   4  -4    8.66    1.42
 -11  -4  -4    9.47    1.94
  11  -4   4   10.45    1.20
  11   4   5   76.86    2.84
  11  -4   5   63.35    2.24
 -11   4  -5   63.70    2.95
 -11  -4  -5   72.60    4.05
  11  -4   5   74.32    2.69
  11   4   6   90.04    2.90
  11  -4   6   76.70    2.40
  11   4   6   77.37    2.46
 -11   4  -6   74.59    2.82
 -11  -4  -6   86.61    4.05
  11  -4   6   95.38    2.76
  11  -4   7    5.22    0.62
 -11   4  -7    5.44    0.96
  11  -4   7    5.57    0.84
  11   4   7    4.58    0.64
 -11   4  -7    5.32    0.79
 -11  -4  -7    6.47    1.30
 -11   4  -8   35.51    1.67
  11  -4   8   37.51    1.50
 -11  -4  -8   39.18    1.77
 -11  -4  -8   37.00    1.93
  11  -5  -7   21.96    0.94
  11   5  -7   20.51    0.94
  11  -5  -6   67.14    1.81
  11   5  -6   65.13    1.82
  11  -5  -5   13.26    0.94
  11   5  -5   13.12    0.98
  11   5  -4    1.40    0.58
  11  -5  -4    1.08    0.42
  11   5  -4    1.05    0.66
 -11   5   4    1.08    0.71
  11  -5  -3   75.88    2.19
  11   5  -3   76.49    2.57
  11   5  -3   77.52    2.35
  11  -5  -2   46.56    1.71
  11   5  -2   49.59    2.22
 -11  -5   2   39.97    2.56
 -11   5   2   55.23    2.86
 -11  -5   2   44.97    2.92
  11  -5  -2   50.79    2.02
  11  -5  -1   71.74    1.96
  11   5  -1   82.18    2.82
 -11  -5   1   83.78    3.90
 -11   5   1   86.58    3.57
 -11  -5   1   86.05    4.37
  11  -5  -1   81.17    2.65
  11  -5   0    1.61    0.41
  11   5   0    2.82    0.91
 -11  -5   0    4.61    1.45
 -11   5   0    2.03    1.07
 -11  -5   0    3.55    1.56
  11  -5   0    3.48    0.82
  11   5   1   10.78    1.24
 -11  -5  -1   12.07    1.84
 -11   5  -1   10.88    1.49
 -11  -5  -1   11.80    2.07
  11  -5   1   10.33    1.14
  11   5   2   32.58    1.85
 -11   5  -2   31.77    2.18
 -11  -5  -2   36.66    3.15
  11  -5   2   34.02    1.81
 -11  -5  -3  143.67    5.03
 -11   5  -3  130.23    3.93
 -11  -5  -3  147.05    5.66
  11  -5   3  144.43    3.45
  11   5   4   35.77    1.59
 -11  -5  -4   44.05    2.80
 -11   5  -4   39.31    2.09
 -11  -5  -4   44.32    3.08
  11  -5   4   46.83    1.90
 -11  -5  -5   47.36    2.59
 -11  -5  -5   47.22    2.87
  11  -5   5   40.95    1.61
 -11  -5  -6   82.55    2.96
 -11  -5  -6   81.86    3.28
 -11   5  -7   14.35    0.93
  11  -6  -2    3.04    0.48
 -11   6   1   15.21    1.27
  11  -6  -1   14.27    0.94
 -11   6   0   68.01    2.49
  11  -6   0   76.18    2.08
 -11  -6  -1    4.04    0.91
 -11   6  -1    4.25    0.85
 -11  -6  -1    3.71    1.06
  11  -6   1    5.13    0.68
 -11  -6  -2  144.55    3.97
 -11   6  -2  144.47    3.33
  11  -6   2  154.93    2.81
 -11  -6  -3    1.59    0.71
 -11   6  -3    1.73    0.53
 -11  -6  -3    1.65    0.88
  11  -6   3    1.43    0.42
  12   0  -7    0.34    0.40
  12   0  -6   42.93    1.59
  12   0  -5    0.30    0.43
  12   0  -4    2.35    0.55
  12   0  -4    2.01    0.52
 -12   0   4    2.10    1.06
  12   0  -3    0.33    0.49
  12   0  -3    0.52    0.54
 -12   0   3    0.99    1.11
  12   0  -2  110.86    3.15
 -12   0   2  113.99    5.34
  12   0  -1    0.54    0.77
  12   0   0  108.35    3.37
  12   0   0  101.40    3.25
  12   0   1    0.20    0.70
 -12   0  -1    1.01    1.41
  12   0   2    8.57    1.21
  12   0   2    7.33    1.29
 -12   0  -2    9.34    1.92
  12   0   3    0.76    0.74
  12   0   3    0.38    1.02
 -12   0  -3    0.48    1.31
  12   0   4  195.92    4.80
 -12   0  -4  206.03    6.47
  12   0   5    1.45    0.76
  12   0   5   -0.05    0.89
 -12   0  -5    0.21    1.13
  12   0   6    9.71    1.09
  12   0   6   10.73    1.30
 -12   0  -6    8.53    1.43
  12   0   7    0.72    0.52
  12   0   7    0.27    0.75
  12   0   8   35.91    1.69
  12   0   9    0.22    0.40
  12  -1  -7   45.64    1.59
  12   1  -7   36.48    1.26
  12  -1  -6    5.98    0.71
  12  -1  -5   43.34    1.65
  12   1  -5   32.54    1.27
  12  -1  -4    2.54    0.56
  12  -1  -4    2.91    0.58
  12   1  -4    1.52    0.46
  12   1  -4    2.41    0.65
 -12   1   4    3.92    1.23
 -12  -1   4    2.90    1.04
  12  -1  -3   36.01    1.72
  12   1  -3   33.91    1.65
  12  -1  -3   30.98    1.32
  12   1  -3   32.29    1.68
 -12   1   3   44.69    3.18
 -12  -1   3   40.12    3.03
  12  -1  -2  109.84    3.13
  12   1  -2  112.11    3.09
  12   1  -2  103.52    3.10
 -12   1   2  121.87    5.21
 -12  -1   2  115.97    5.27
 -12   1   1   60.70    3.87
  12  -1  -1   63.71    2.60
  12   1   0   70.61    2.77
  12  -1   0   62.68    2.38
  12   1   0   63.78    2.74
 -12   1   0   67.66    4.05
 -12  -1   0   73.87    4.40
  12  -1   0   69.28    2.78
  12   1   1  135.98    3.87
  12  -1   1  114.99    3.36
  12   1   1  118.97    3.75
 -12   1  -1  133.99    5.55
 -12  -1  -1  136.10    5.77
  12  -1   1  133.12    3.87
  12  -1   2    1.29    0.84
  12   1   2    1.12    0.86
  12  -1   2    0.11    0.85
  12   1   2    0.39    0.93
 -12   1  -2   -0.44    1.28
 -12  -1  -2    0.76    1.37
  12  -1   3  129.77    3.77
  12   1   3  134.36    3.91
  12   1   3  109.91    3.60
 -12   1  -3  116.68    4.93
 -12  -1  -3  122.36    5.19
  12  -1   4   67.30    2.74
  12   1   4   77.01    2.89
  12  -1   4   62.96    2.69
  12   1   4   65.83    2.84
 -12   1  -4   69.26    3.66
 -12  -1  -4   67.67    3.88
  12  -1   5   52.96    2.29
  12  -1   5   43.62    2.24
  12   1   5   47.27    2.36
 -12   1  -5   45.67    2.86
 -12  -1  -5   46.30    3.01
  12  -1   6    3.42    0.75
  12   1   6    6.35    0.95
  12  -1   6    3.80    0.98
  12   1   6    3.12    0.97
 -12   1  -6    2.93    1.03
 -12  -1  -6    3.70    1.14
  12  -1   7   39.19    1.64
  12  -1   7   35.58    1.82
  12   1   7   35.68    1.82
 -12   1  -7   32.69    1.94
  12  -1   8   42.26    1.79
  12   1   8   39.58    1.63
  12  -2  -7    5.30    0.61
  12   2  -7    4.74    0.57
  12  -2  -6    0.56    0.43
  12  -2  -5    6.81    0.72
  12   2  -5    5.72    0.71
  12  -2  -4  145.99    2.84
  12   2  -4  144.69    3.22
 -12   2   4  153.59    4.71
  12   2  -3    3.72    0.63
  12  -2  -3    5.38    0.63
 -12   2   3    8.21    1.52
 -12  -2   3    5.95    1.39
  12  -2  -3    6.83    0.85
  12   2  -2    4.44    0.75
  12   2  -2    5.10    1.04
 -12   2   2    7.25    1.57
 -12  -2   2    6.34    1.57
  12   2  -1    8.66    1.03
  12   2  -1    8.40    1.22
 -12   2   1    6.81    1.57
 -12  -2   1    8.61    1.79
  12  -2  -1    8.15    1.07
  12   2   0    5.01    0.92
  12  -2   0    3.39    0.66
  12   2   0    5.11    1.12
 -12   2   0    4.74    1.42
 -12  -2   0    4.07    1.61
  12  -2   0    3.49    0.87
  12   2   1    4.72    0.95
  12  -2   1    2.90    0.77
  12   2   1    2.98    1.07
 -12   2  -1    4.45    1.52
 -12  -2  -1    4.37    1.68
  12  -2   1    4.43    0.94
  12   2   2  180.66    4.29
  12  -2   2  153.04    3.51
  12   2   2  157.26    4.20
 -12   2  -2  158.56    5.53
 -12  -2  -2  174.14    6.21
  12  -2   2  176.46    4.34
  12   2   3    1.95    0.82
  12  -2   3    1.11    0.73
  12   2   3    0.71    0.91
 -12   2  -3    1.56    1.18
 -12  -2  -3    0.62    1.27
  12  -2   3    3.54    0.87
  12   2   4    7.97    1.09
  12  -2   4    5.60    0.98
  12   2   4    5.04    1.05
 -12   2  -4    4.74    1.32
 -12  -2  -4    5.21    1.50
  12  -2   4    7.96    1.08
  12  -2   5    0.20    0.56
  12   2   5    0.69    0.66
  12   2   5   -0.07    0.74
 -12   2  -5   -0.04    0.54
 -12   2  -5    0.10    0.76
 -12  -2  -5   -0.02    0.98
  12   2   6    0.49    0.55
  12  -2   6    0.77    0.72
  12   2   6    0.40    0.68
 -12   2  -6    0.26    0.47
 -12  -2  -6    0.52    0.84
  12  -2   7    2.19    0.46
  12  -2   7    2.71    0.73
  12   2   7    2.47    0.68
 -12   2  -7    2.56    0.65
  12  -2   8   89.56    2.21
  12   3  -7    9.74    0.64
  12  -3  -6   53.35    1.49
  12   3  -6   55.29    1.68
  12  -3  -5   18.84    0.97
  12   3  -5   18.37    1.07
  12  -3  -4   24.57    1.10
  12  -3  -4   21.41    1.02
  12   3  -3   31.72    1.67
 -12   3   3   31.18    2.24
  12  -3  -3   30.55    1.44
  12   3  -2   14.97    1.32
 -12  -3   2   17.39    1.97
  12   3  -1   12.83    1.07
  12   3  -1   11.63    1.25
 -12   3   1   14.51    1.80
 -12  -3   1   14.29    2.02
  12  -3  -1   14.32    1.21
  12   3   0  144.30    3.75
 -12   3   0  155.52    5.07
  12  -3   0  158.32    3.74
  12   3   1    4.15    0.82
  12   3   1    2.69    0.93
 -12   3  -1    3.24    1.22
 -12  -3  -1    2.78    1.53
  12  -3   1    4.12    0.85
  12   3   2   46.08    2.07
  12   3   2   42.51    2.10
 -12   3  -2   43.98    2.72
 -12  -3  -2   44.06    3.18
  12  -3   2   45.64    2.13
  12   3   3   24.81    1.56
  12  -3   3   17.58    1.05
  12   3   3   20.87    1.51
 -12   3  -3   19.03    1.81
 -12  -3  -3   22.54    2.27
  12  -3   3   23.64    1.53
  12   3   4    6.30    0.88
  12  -3   4    5.42    0.73
  12   3   4    6.06    0.98
 -12   3  -4    5.32    1.14
 -12  -3  -4    6.19    1.40
  12  -3   4    7.13    0.91
  12  -3   5   52.58    1.91
  12   3   5   55.20    2.05
  12  -3   5   41.27    1.53
  12   3   5   46.23    1.87
 -12   3  -5   46.86    2.30
 -12  -3  -5   49.25    2.83
  12  -3   6   57.98    1.70
  12   3   6   68.51    2.03
  12  -3   6   49.55    1.57
 -12   3  -6   57.85    2.18
 -12  -3  -6   60.40    2.76
  12   4  -5   13.33    0.82
  12   4  -4   13.33    0.89
  12   4  -3    3.97    0.68
 -12   4   3    4.14    0.81
  12   4  -3    3.92    0.62
  12  -4  -3    4.13    0.53
  12   4  -2   27.30    1.48
  12   4  -1   16.55    1.23
 -12  -4   1   15.94    1.54
 -12   4   1   17.70    1.67
 -12  -4   1   15.29    1.68
  12  -4  -1   18.38    1.15
  12   4   0   75.95    2.51
 -12   4   0   76.75    3.13
 -12  -4   0   74.84    3.54
  12  -4   0   75.39    2.29
  12   4   1    9.87    0.85
  12   4   1    9.84    1.07
 -12   4  -1    9.43    1.31
  12  -4   1    9.62    0.95
  12   4   2   20.80    1.20
  12   4   2   20.13    1.32
 -12   4  -2   17.24    1.56
 -12  -4  -2   20.73    2.01
  12  -4   2   20.22    1.28
  12   4   3   28.43    1.38
  12   4   3   22.87    1.31
 -12   4  -3   24.39    1.68
 -12  -4  -3   26.79    2.18
  12  -4   3   28.69    1.42
 -12   4  -4   13.12    1.17
 -12  -4  -4   15.70    1.67
  12  -4   4   15.82    0.99
 -12  -4  -5   40.42    1.95
 -12  -4  -5   44.29    2.27
  12   5   0    5.16    0.57
 -12   5   0    5.68    0.77
  12  -5   0    7.05    0.60
 -12   5  -1   44.78    1.78
  12  -5   1   48.25    1.46
  13   0  -2    0.14    0.31
 -13   0   2    0.66    0.69
  13   0  -1  126.77    2.63
 -13   0   1  155.28    4.52
  13   0   0    0.07    0.46
  13   0   0    0.09    0.45
  13   0   1   17.29    1.15
  13   0   1   14.68    1.00
 -13   0  -1   16.44    1.76
  13   0   2    0.21    0.49
 -13   0  -2    1.17    0.93
  13   0   3   37.14    1.54
 -13   0  -3   43.30    2.43
  13   0   4    0.28    0.43
  13   0   4   -0.01    0.47
 -13   0  -4    0.22    0.68
  13   0   5   77.92    1.94
 -13   0  -5   79.22    2.59
  13  -1  -2   21.51    0.99
 -13   1   2   33.42    1.93
  13   1  -1   23.95    1.12
  13   1  -1   25.32    1.21
 -13   1   1   31.05    2.11
 -13  -1   1   30.76    2.07
  13  -1   0  125.48    2.75
 -13   1   0  121.55    4.05
  13  -1   1   47.27    1.76
  13   1   1   47.93    1.76
  13   1   1   40.85    1.65
 -13   1  -1   48.67    2.70
 -13  -1  -1   49.25    2.70
  13  -1   2   47.07    1.75
  13   1   2   46.33    1.73
  13  -1   2   32.96    1.24
  13   1   2   38.61    1.61
 -13   1  -2   40.49    2.36
 -13  -1  -2   42.55    2.53
  13  -1   3  106.80    2.52
  13   1   3  103.08    2.53
  13   1   3   90.38    2.33
 -13   1  -3   93.30    3.34
 -13  -1  -3   94.75    3.46
  13  -1   4    9.68    0.82
  13   1   4   10.61    0.86
  13  -1   4    6.28    0.65
  13   1   4    7.56    0.81
 -13   1  -4    7.58    1.10
 -13  -1  -4    8.72    1.15
  13   1   5   30.98    1.25
 -13  -1  -5   30.33    1.64
  13   2  -2    5.74    0.59
 -13   2   1    4.35    0.91
  13  -2   0    4.31    0.58
  13   2   0    3.69    0.51
  13   2   0    4.64    0.68
 -13   2   0    5.57    1.03
 -13  -2   0    4.80    0.98
  13  -2   1    6.67    0.69
  13   2   1    5.31    0.61
  13   2   1    5.31    0.71
 -13   2  -1    6.42    1.09
 -13  -2  -1    5.79    1.09
  13  -2   2    0.85    0.40
  13   2   2    0.66    0.41
  13   2   2    0.70    0.50
 -13   2  -2    0.84    0.67
 -13  -2  -2    0.79    0.75
  13  -2   3    4.80    0.59
  13   2   3    5.14    0.60
  13   2   3    3.46    0.61
 -13   2  -3    3.69    0.85
 -13  -2  -3    4.21    0.91
  13   2   4   12.32    0.77
  13   2   4    8.90    0.74
 -13   2  -4    9.74    0.97
 -13  -2  -4    9.14    1.03
  13   3   0    7.71    0.67
  13   3   1   25.27    1.09


TITL 190906_SY_1_MPZ_NH2OH_Cu in P2(1)/n
REM P2(1)/n (#14 in standard setting)
CELL 1.54184  10.704487   8.604707  15.625409  90.0000  90.3453  90.0000
ZERR    6.00   0.000162   0.000149   0.000281   0.0000   0.0015   0.0000
LATT  1
SYMM -x+1/2, y+1/2,-z+1/2
SFAC C H N O
UNIT 66.00 60.00 6.00 6.00
TREF
HKLF 4
END
_computing_structure_solution     'SHELXT 2014/4 (Sheldrick, 2014)'
;
_shelx_hkl_checksum              86415
_olex2_submission_special_instructions 'No special instructions were received'
_oxdiff_exptl_absorpt_empirical_details 
;
Empirical correction (ABSPACK) includes:
- Absorption correction using spherical harmonics
- Frame scaling
- Detector area scaling
;
_oxdiff_exptl_absorpt_empirical_full_max 3.649
_oxdiff_exptl_absorpt_empirical_full_min 0.460
